REMARK  Name = ../refined-set-2016/3wq6/3wq6_pocket.pdb
REMARK  244 active torsions:
REMARK  status: ('A' for Active; 'I' for Inactive)
REMARK    1  A    between atoms: _1  and  _3
REMARK    2  A    between atoms: _3  and  _4
REMARK    3  A    between atoms: _7  and  _9
REMARK    4  A    between atoms: _9  and  _10
REMARK    5  A    between atoms: _9  and  _12
REMARK    6  A    between atoms: _12  and  _13
REMARK    7  A    between atoms: _15  and  _17
REMARK    8  A    between atoms: _17  and  _18
REMARK    9  A    between atoms: _17  and  _20
REMARK   10  A    between atoms: _20  and  _21
REMARK   11  A    between atoms: _23  and  _25
REMARK   12  A    between atoms: _25  and  _26
REMARK   13  A    between atoms: _29  and  _31
REMARK   14  A    between atoms: _31  and  _32
REMARK   15  A    between atoms: _31  and  _34
REMARK   16  A    between atoms: _34  and  _35
REMARK   17  A    between atoms: _40  and  _41
REMARK   18  A    between atoms: _43  and  _45
REMARK   19  A    between atoms: _45  and  _46
REMARK   20  A    between atoms: _45  and  _48
REMARK   21  A    between atoms: _48  and  _49
REMARK   22  A    between atoms: _49  and  _50
REMARK   23  A    between atoms: _55  and  _57
REMARK   24  A    between atoms: _57  and  _58
REMARK   25  A    between atoms: _57  and  _60
REMARK   26  A    between atoms: _60  and  _61
REMARK   27  A    between atoms: _67  and  _69
REMARK   28  A    between atoms: _69  and  _70
REMARK   29  A    between atoms: _69  and  _72
REMARK   30  A    between atoms: _72  and  _73
REMARK   31  A    between atoms: _83  and  _85
REMARK   32  A    between atoms: _85  and  _86
REMARK   33  A    between atoms: _85  and  _88
REMARK   34  A    between atoms: _88  and  _89
REMARK   35  A    between atoms: _91  and  _93
REMARK   36  A    between atoms: _93  and  _94
REMARK   37  A    between atoms: _93  and  _96
REMARK   38  A    between atoms: _96  and  _97
REMARK   39  A    between atoms: _97  and  _98
REMARK   40  A    between atoms: _98  and  _99
REMARK   41  A    between atoms: _108  and  _110
REMARK   42  A    between atoms: _110  and  _111
REMARK   43  A    between atoms: _110  and  _113
REMARK   44  A    between atoms: _113  and  _114
REMARK   45  A    between atoms: _117  and  _119
REMARK   46  A    between atoms: _119  and  _120
REMARK   47  A    between atoms: _119  and  _122
REMARK   48  A    between atoms: _122  and  _123
REMARK   49  A    between atoms: _128  and  _130
REMARK   50  A    between atoms: _130  and  _131
REMARK   51  A    between atoms: _130  and  _133
REMARK   52  A    between atoms: _133  and  _134
REMARK   53  A    between atoms: _144  and  _146
REMARK   54  A    between atoms: _146  and  _147
REMARK   55  A    between atoms: _146  and  _149
REMARK   56  A    between atoms: _149  and  _150
REMARK   57  A    between atoms: _155  and  _157
REMARK   58  A    between atoms: _157  and  _158
REMARK   59  A    between atoms: _157  and  _160
REMARK   60  A    between atoms: _160  and  _161
REMARK   61  A    between atoms: _161  and  _162
REMARK   62  A    between atoms: _165  and  _167
REMARK   63  A    between atoms: _167  and  _168
REMARK   64  A    between atoms: _167  and  _170
REMARK   65  A    between atoms: _170  and  _171
REMARK   66  A    between atoms: _181  and  _183
REMARK   67  A    between atoms: _183  and  _184
REMARK   68  A    between atoms: _183  and  _186
REMARK   69  A    between atoms: _186  and  _187
REMARK   70  A    between atoms: _189  and  _191
REMARK   71  A    between atoms: _191  and  _192
REMARK   72  A    between atoms: _191  and  _194
REMARK   73  A    between atoms: _194  and  _195
REMARK   74  A    between atoms: _200  and  _201
REMARK   75  A    between atoms: _203  and  _205
REMARK   76  A    between atoms: _205  and  _206
REMARK   77  A    between atoms: _205  and  _208
REMARK   78  A    between atoms: _208  and  _209
REMARK   79  A    between atoms: _211  and  _213
REMARK   80  A    between atoms: _213  and  _214
REMARK   81  A    between atoms: _213  and  _216
REMARK   82  A    between atoms: _216  and  _217
REMARK   83  A    between atoms: _222  and  _223
REMARK   84  A    between atoms: _225  and  _227
REMARK   85  A    between atoms: _227  and  _228
REMARK   86  A    between atoms: _230  and  _232
REMARK   87  A    between atoms: _232  and  _233
REMARK   88  A    between atoms: _235  and  _237
REMARK   89  A    between atoms: _237  and  _238
REMARK   90  A    between atoms: _237  and  _240
REMARK   91  A    between atoms: _240  and  _241
REMARK   92  A    between atoms: _246  and  _247
REMARK   93  A    between atoms: _249  and  _251
REMARK   94  A    between atoms: _251  and  _252
REMARK   95  A    between atoms: _251  and  _254
REMARK   96  A    between atoms: _254  and  _255
REMARK   97  A    between atoms: _258  and  _260
REMARK   98  A    between atoms: _260  and  _261
REMARK   99  A    between atoms: _264  and  _266
REMARK  100  A    between atoms: _266  and  _267
REMARK  101  A    between atoms: _269  and  _271
REMARK  102  A    between atoms: _271  and  _272
REMARK  103  A    between atoms: _271  and  _274
REMARK  104  A    between atoms: _274  and  _275
REMARK  105  A    between atoms: _278  and  _280
REMARK  106  A    between atoms: _280  and  _281
REMARK  107  A    between atoms: _280  and  _283
REMARK  108  A    between atoms: _283  and  _284
REMARK  109  A    between atoms: _287  and  _289
REMARK  110  A    between atoms: _289  and  _290
REMARK  111  A    between atoms: _289  and  _292
REMARK  112  A    between atoms: _292  and  _293
REMARK  113  A    between atoms: _296  and  _298
REMARK  114  A    between atoms: _298  and  _299
REMARK  115  A    between atoms: _298  and  _301
REMARK  116  A    between atoms: _304  and  _306
REMARK  117  A    between atoms: _306  and  _307
REMARK  118  A    between atoms: _306  and  _309
REMARK  119  A    between atoms: _309  and  _310
REMARK  120  A    between atoms: _313  and  _315
REMARK  121  A    between atoms: _315  and  _316
REMARK  122  A    between atoms: _315  and  _318
REMARK  123  A    between atoms: _318  and  _319
REMARK  124  A    between atoms: _324  and  _325
REMARK  125  A    between atoms: _327  and  _329
REMARK  126  A    between atoms: _329  and  _330
REMARK  127  A    between atoms: _329  and  _332
REMARK  128  A    between atoms: _332  and  _333
REMARK  129  A    between atoms: _333  and  _334
REMARK  130  A    between atoms: _336  and  _338
REMARK  131  A    between atoms: _338  and  _339
REMARK  132  A    between atoms: _338  and  _341
REMARK  133  A    between atoms: _341  and  _342
REMARK  134  A    between atoms: _347  and  _349
REMARK  135  A    between atoms: _349  and  _350
REMARK  136  A    between atoms: _349  and  _352
REMARK  137  A    between atoms: _352  and  _353
REMARK  138  A    between atoms: _358  and  _359
REMARK  139  A    between atoms: _361  and  _363
REMARK  140  A    between atoms: _363  and  _364
REMARK  141  A    between atoms: _363  and  _366
REMARK  142  A    between atoms: _366  and  _367
REMARK  143  A    between atoms: _372  and  _373
REMARK  144  A    between atoms: _375  and  _377
REMARK  145  A    between atoms: _377  and  _378
REMARK  146  A    between atoms: _377  and  _380
REMARK  147  A    between atoms: _380  and  _381
REMARK  148  A    between atoms: _384  and  _386
REMARK  149  A    between atoms: _386  and  _387
REMARK  150  A    between atoms: _386  and  _389
REMARK  151  A    between atoms: _389  and  _390
REMARK  152  A    between atoms: _395  and  _397
REMARK  153  A    between atoms: _397  and  _398
REMARK  154  A    between atoms: _397  and  _400
REMARK  155  A    between atoms: _400  and  _401
REMARK  156  A    between atoms: _401  and  _402
REMARK  157  A    between atoms: _407  and  _409
REMARK  158  A    between atoms: _409  and  _410
REMARK  159  A    between atoms: _409  and  _412
REMARK  160  A    between atoms: _412  and  _413
REMARK  161  A    between atoms: _416  and  _418
REMARK  162  A    between atoms: _418  and  _419
REMARK  163  A    between atoms: _421  and  _423
REMARK  164  A    between atoms: _423  and  _424
REMARK  165  A    between atoms: _423  and  _426
REMARK  166  A    between atoms: _430  and  _431
REMARK  167  A    between atoms: _436  and  _438
REMARK  168  A    between atoms: _438  and  _439
REMARK  169  A    between atoms: _442  and  _444
REMARK  170  A    between atoms: _444  and  _445
REMARK  171  A    between atoms: _444  and  _447
REMARK  172  A    between atoms: _447  and  _448
REMARK  173  A    between atoms: _454  and  _456
REMARK  174  A    between atoms: _456  and  _457
REMARK  175  A    between atoms: _456  and  _459
REMARK  176  A    between atoms: _459  and  _460
REMARK  177  A    between atoms: _463  and  _465
REMARK  178  A    between atoms: _465  and  _466
REMARK  179  A    between atoms: _465  and  _468
REMARK  180  A    between atoms: _468  and  _469
REMARK  181  A    between atoms: _469  and  _470
REMARK  182  A    between atoms: _473  and  _475
REMARK  183  A    between atoms: _475  and  _476
REMARK  184  A    between atoms: _475  and  _478
REMARK  185  A    between atoms: _478  and  _479
REMARK  186  A    between atoms: _484  and  _486
REMARK  187  A    between atoms: _486  and  _487
REMARK  188  A    between atoms: _489  and  _491
REMARK  189  A    between atoms: _491  and  _492
REMARK  190  A    between atoms: _491  and  _494
REMARK  191  A    between atoms: _494  and  _495
REMARK  192  A    between atoms: _495  and  _496
REMARK  193  A    between atoms: _498  and  _500
REMARK  194  A    between atoms: _500  and  _501
REMARK  195  A    between atoms: _503  and  _505
REMARK  196  A    between atoms: _505  and  _506
REMARK  197  A    between atoms: _505  and  _508
REMARK  198  A    between atoms: _508  and  _509
REMARK  199  A    between atoms: _519  and  _521
REMARK  200  A    between atoms: _521  and  _522
REMARK  201  A    between atoms: _525  and  _527
REMARK  202  A    between atoms: _527  and  _528
REMARK  203  A    between atoms: _527  and  _530
REMARK  204  A    between atoms: _530  and  _531
REMARK  205  A    between atoms: _534  and  _536
REMARK  206  A    between atoms: _536  and  _537
REMARK  207  A    between atoms: _536  and  _539
REMARK  208  A    between atoms: _539  and  _540
REMARK  209  A    between atoms: _545  and  _547
REMARK  210  A    between atoms: _547  and  _548
REMARK  211  A    between atoms: _547  and  _550
REMARK  212  A    between atoms: _550  and  _551
REMARK  213  A    between atoms: _557  and  _559
REMARK  214  A    between atoms: _559  and  _560
REMARK  215  A    between atoms: _559  and  _562
REMARK  216  A    between atoms: _562  and  _563
REMARK  217  A    between atoms: _563  and  _564
REMARK  218  A    between atoms: _567  and  _569
REMARK  219  A    between atoms: _569  and  _570
REMARK  220  A    between atoms: _569  and  _572
REMARK  221  A    between atoms: _572  and  _573
REMARK  222  A    between atoms: _583  and  _585
REMARK  223  A    between atoms: _585  and  _586
REMARK  224  A    between atoms: _585  and  _588
REMARK  225  A    between atoms: _588  and  _589
REMARK  226  A    between atoms: _592  and  _594
REMARK  227  A    between atoms: _594  and  _595
REMARK  228  A    between atoms: _594  and  _597
REMARK  229  A    between atoms: _597  and  _598
REMARK  230  A    between atoms: _600  and  _602
REMARK  231  A    between atoms: _602  and  _603
REMARK  232  A    between atoms: _605  and  _607
REMARK  233  A    between atoms: _607  and  _608
REMARK  234  A    between atoms: _607  and  _610
REMARK  235  A    between atoms: _610  and  _611
REMARK  236  A    between atoms: _614  and  _616
REMARK  237  A    between atoms: _616  and  _617
REMARK  238  A    between atoms: _616  and  _619
REMARK  239  A    between atoms: _619  and  _620
REMARK  240  A    between atoms: _620  and  _621
REMARK  241  A    between atoms: _626  and  _628
REMARK  242  A    between atoms: _628  and  _629
REMARK  243  A    between atoms: _628  and  _631
REMARK  244  A    between atoms: _631  and  _632
REMARK                            x       y       z     vdW  Elec       q    Type
REMARK                         _______ _______ _______ _____ _____    ______ ____
ROOT
ATOM      1  CA  TYR A   5       3.298  42.493  30.767  0.00  0.00    +0.153 C 
ENDROOT
BRANCH   1   4
ATOM      2  C   ALA A   4       4.625  41.224  32.313  0.00  0.00    +0.241 C 
ATOM      3  O   ALA A   4       3.925  41.628  33.243  0.00  0.00    -0.273 OA
ATOM      4  N   TYR A   5       4.381  41.555  31.046  0.00  0.00    -0.297 N 
ATOM      5  H   TYR A   5       4.949  41.154  30.273  0.00  0.00    +0.150 HD
BRANCH   2   6
ATOM      6  CA  ALA A   4       5.821  40.319  32.605  0.00  0.00    +0.149 C 
ATOM      7  CB  ALA A   4       7.129  41.068  32.342  0.00  0.00    +0.031 C 
BRANCH   6  10
ATOM      8  C   SER A   3       4.818  38.191  31.995  0.00  0.00    +0.243 C 
ATOM      9  O   SER A   3       3.789  38.415  32.647  0.00  0.00    -0.273 OA
ATOM     10  N   ALA A   4       5.790  39.082  31.841  0.00  0.00    -0.297 N 
ATOM     11  H   ALA A   4       6.549  38.890  31.156  0.00  0.00    +0.150 HD
BRANCH   8  12
ATOM     12  CA  SER A   3       5.037  36.847  31.310  0.00  0.00    +0.178 C 
BRANCH  12  14
ATOM     13  C   SER A   2       4.642  34.585  32.136  0.00  0.00    +0.243 C 
ATOM     14  N   SER A   3       4.217  35.834  31.971  0.00  0.00    -0.295 N 
ATOM     15  H   SER A   3       3.274  36.097  32.322  0.00  0.00    +0.150 HD
ATOM     16  O   SER A   2       5.654  34.139  31.595  0.00  0.00    -0.273 OA
BRANCH  13  17
ATOM     17  CA  SER A   2       3.806  33.687  33.041  0.00  0.00    +0.178 C 
BRANCH  17  20
ATOM     18  C   ALA A   1       3.584  31.243  33.196  0.00  0.00    +0.238 C 
ATOM     19  O   ALA A   1       2.406  31.283  33.568  0.00  0.00    -0.274 OA
ATOM     20  N   SER A   2       4.305  32.325  32.914  0.00  0.00    -0.295 N 
ATOM     21  H   SER A   2       5.282  32.190  32.584  0.00  0.00    +0.150 HD
BRANCH  18  22
ATOM     22  CA  ALA A   1       4.314  29.920  33.011  0.00  0.00    +0.145 C 
ATOM     23  CB  ALA A   1       4.391  29.565  31.523  0.00  0.00    +0.028 C 
BRANCH  22  24
ATOM     24  N   ALA A   1       3.701  28.823  33.752  0.00  0.00    -0.238 NA
ATOM     25  H   ALA A   1       2.716  28.555  33.551  0.00  0.00    +0.142 HD
ENDBRANCH  22  24
ENDBRANCH  18  22
ENDBRANCH  17  20
BRANCH  17  26
ATOM     26  CB  SER A   2       3.895  34.170  34.493  0.00  0.00    +0.166 C 
BRANCH  26  27
ATOM     27  OG  SER A   2       5.251  34.273  34.909  0.00  0.00    -0.380 OA
ATOM     28  H   SER A   2       5.684  33.386  34.840  0.00  0.00    +0.211 HD
ENDBRANCH  26  27
ENDBRANCH  17  26
ENDBRANCH  13  17
ENDBRANCH  12  14
BRANCH  12  29
ATOM     29  CB  SER A   3       4.723  36.946  29.810  0.00  0.00    +0.166 C 
BRANCH  29  30
ATOM     30  OG  SER A   3       3.688  37.883  29.550  0.00  0.00    -0.380 OA
ATOM     31  H   SER A   3       3.966  38.778  29.870  0.00  0.00    +0.211 HD
ENDBRANCH  29  30
ENDBRANCH  12  29
ENDBRANCH   8  12
ENDBRANCH   6  10
ENDBRANCH   2   6
ENDBRANCH   1   4
BRANCH   1  32
ATOM     32  C   TYR A   5       1.949  41.901  31.155  0.00  0.00    +0.241 C 
ATOM     33  O   TYR A   5       1.049  42.617  31.594  0.00  0.00    -0.273 OA
ATOM     34  N   GLN A   6       1.809  40.592  30.996  0.00  0.00    -0.297 N 
ATOM     35  H   GLN A   6       2.619  40.021  30.682  0.00  0.00    +0.150 HD
BRANCH  34  36
ATOM     36  CA  GLN A   6       0.528  39.948  31.258  0.00  0.00    +0.149 C 
BRANCH  36  37
ATOM     37  C   GLN A   6       0.222  39.789  32.745  0.00  0.00    +0.241 C 
ATOM     38  N   PHE A   7       1.251  39.809  33.591  0.00  0.00    -0.298 N 
ATOM     39  H   PHE A   7       2.201  40.045  33.239  0.00  0.00    +0.150 HD
ATOM     40  O   GLN A   6      -0.935  39.651  33.119  0.00  0.00    -0.273 OA
BRANCH  38  41
ATOM     41  CA  PHE A   7       1.061  39.501  35.017  0.00  0.00    +0.141 C 
BRANCH  41  42
ATOM     42  C   PHE A   7       1.350  40.666  35.968  0.00  0.00    +0.227 C 
ATOM     43  O   PHE A   7       0.670  40.828  36.976  0.00  0.00    -0.286 OA
ENDBRANCH  41  42
BRANCH  41  44
ATOM     44  CB  PHE A   7       1.953  38.321  35.443  0.00  0.00    +0.054 C 
BRANCH  44  45
ATOM     45  CG  PHE A   7       1.403  36.961  35.097  0.00  0.00    -0.020 A 
ATOM     46  CD2 PHE A   7       1.147  36.031  36.099  0.00  0.00    -0.004 A 
ATOM     47  CE2 PHE A   7       0.660  34.774  35.793  0.00  0.00    -0.000 A 
ATOM     48  CZ  PHE A   7       0.429  34.424  34.464  0.00  0.00    -0.000 A 
ATOM     49  CE1 PHE A   7       0.697  35.333  33.461  0.00  0.00    -0.000 A 
ATOM     50  CD1 PHE A   7       1.189  36.593  33.777  0.00  0.00    -0.004 A 
ENDBRANCH  44  45
ENDBRANCH  41  44
ENDBRANCH  38  41
ENDBRANCH  36  37
BRANCH  36  51
ATOM     51  CB  GLN A   6       0.486  38.585  30.581  0.00  0.00    +0.039 C 
BRANCH  51  52
ATOM     52  CG  GLN A   6       0.647  38.665  29.075  0.00  0.00    +0.087 C 
BRANCH  52  53
ATOM     53  CD  GLN A   6       0.605  37.304  28.437  0.00  0.00    +0.219 C 
ATOM     54  OE1 GLN A   6       1.638  36.663  28.261  0.00  0.00    -0.275 OA
ATOM     55  NE2 GLN A   6      -0.597  36.844  28.096  0.00  0.00    -0.329 N 
ATOM     56 HE21 GLN A   6      -1.443  37.424  28.265  0.00  0.00    +0.145 HD
ATOM     57 HE22 GLN A   6      -0.690  35.904  27.660  0.00  0.00    +0.145 HD
ENDBRANCH  52  53
ENDBRANCH  51  52
ENDBRANCH  36  51
ENDBRANCH  34  36
ENDBRANCH   1  32
BRANCH   1  58
ATOM     58  CB  TYR A   5       3.257  42.925  29.296  0.00  0.00    +0.055 C 
BRANCH  58  59
ATOM     59  CG  TYR A   5       2.231  44.018  29.101  0.00  0.00    -0.020 A 
ATOM     60  CD2 TYR A   5       2.498  45.319  29.507  0.00  0.00    -0.001 A 
ATOM     61  CE2 TYR A   5       1.552  46.325  29.364  0.00  0.00    +0.036 A 
ATOM     62  CZ  TYR A   5       0.322  46.034  28.825  0.00  0.00    +0.134 A 
ATOM     63  CE1 TYR A   5       0.025  44.751  28.416  0.00  0.00    +0.036 A 
ATOM     64  CD1 TYR A   5       0.977  43.743  28.569  0.00  0.00    -0.001 A 
BRANCH  62  65
ATOM     65  OH  TYR A   5      -0.607  47.040  28.686  0.00  0.00    -0.506 OA
ATOM     66  HH  TYR A   5      -0.228  47.888  29.029  0.00  0.00    +0.292 HD
ENDBRANCH  62  65
ENDBRANCH  58  59
ENDBRANCH   1  58
TORSDOF 26
REMARK  Name = ../refined-set-2016/3wq6/3wq6_pocket.pdb
REMARK  244 active torsions:
REMARK  status: ('A' for Active; 'I' for Inactive)
REMARK    1  A    between atoms: _1  and  _3
REMARK    2  A    between atoms: _3  and  _4
REMARK    3  A    between atoms: _7  and  _9
REMARK    4  A    between atoms: _9  and  _10
REMARK    5  A    between atoms: _9  and  _12
REMARK    6  A    between atoms: _12  and  _13
REMARK    7  A    between atoms: _15  and  _17
REMARK    8  A    between atoms: _17  and  _18
REMARK    9  A    between atoms: _17  and  _20
REMARK   10  A    between atoms: _20  and  _21
REMARK   11  A    between atoms: _23  and  _25
REMARK   12  A    between atoms: _25  and  _26
REMARK   13  A    between atoms: _29  and  _31
REMARK   14  A    between atoms: _31  and  _32
REMARK   15  A    between atoms: _31  and  _34
REMARK   16  A    between atoms: _34  and  _35
REMARK   17  A    between atoms: _40  and  _41
REMARK   18  A    between atoms: _43  and  _45
REMARK   19  A    between atoms: _45  and  _46
REMARK   20  A    between atoms: _45  and  _48
REMARK   21  A    between atoms: _48  and  _49
REMARK   22  A    between atoms: _49  and  _50
REMARK   23  A    between atoms: _55  and  _57
REMARK   24  A    between atoms: _57  and  _58
REMARK   25  A    between atoms: _57  and  _60
REMARK   26  A    between atoms: _60  and  _61
REMARK   27  A    between atoms: _67  and  _69
REMARK   28  A    between atoms: _69  and  _70
REMARK   29  A    between atoms: _69  and  _72
REMARK   30  A    between atoms: _72  and  _73
REMARK   31  A    between atoms: _83  and  _85
REMARK   32  A    between atoms: _85  and  _86
REMARK   33  A    between atoms: _85  and  _88
REMARK   34  A    between atoms: _88  and  _89
REMARK   35  A    between atoms: _91  and  _93
REMARK   36  A    between atoms: _93  and  _94
REMARK   37  A    between atoms: _93  and  _96
REMARK   38  A    between atoms: _96  and  _97
REMARK   39  A    between atoms: _97  and  _98
REMARK   40  A    between atoms: _98  and  _99
REMARK   41  A    between atoms: _108  and  _110
REMARK   42  A    between atoms: _110  and  _111
REMARK   43  A    between atoms: _110  and  _113
REMARK   44  A    between atoms: _113  and  _114
REMARK   45  A    between atoms: _117  and  _119
REMARK   46  A    between atoms: _119  and  _120
REMARK   47  A    between atoms: _119  and  _122
REMARK   48  A    between atoms: _122  and  _123
REMARK   49  A    between atoms: _128  and  _130
REMARK   50  A    between atoms: _130  and  _131
REMARK   51  A    between atoms: _130  and  _133
REMARK   52  A    between atoms: _133  and  _134
REMARK   53  A    between atoms: _144  and  _146
REMARK   54  A    between atoms: _146  and  _147
REMARK   55  A    between atoms: _146  and  _149
REMARK   56  A    between atoms: _149  and  _150
REMARK   57  A    between atoms: _155  and  _157
REMARK   58  A    between atoms: _157  and  _158
REMARK   59  A    between atoms: _157  and  _160
REMARK   60  A    between atoms: _160  and  _161
REMARK   61  A    between atoms: _161  and  _162
REMARK   62  A    between atoms: _165  and  _167
REMARK   63  A    between atoms: _167  and  _168
REMARK   64  A    between atoms: _167  and  _170
REMARK   65  A    between atoms: _170  and  _171
REMARK   66  A    between atoms: _181  and  _183
REMARK   67  A    between atoms: _183  and  _184
REMARK   68  A    between atoms: _183  and  _186
REMARK   69  A    between atoms: _186  and  _187
REMARK   70  A    between atoms: _189  and  _191
REMARK   71  A    between atoms: _191  and  _192
REMARK   72  A    between atoms: _191  and  _194
REMARK   73  A    between atoms: _194  and  _195
REMARK   74  A    between atoms: _200  and  _201
REMARK   75  A    between atoms: _203  and  _205
REMARK   76  A    between atoms: _205  and  _206
REMARK   77  A    between atoms: _205  and  _208
REMARK   78  A    between atoms: _208  and  _209
REMARK   79  A    between atoms: _211  and  _213
REMARK   80  A    between atoms: _213  and  _214
REMARK   81  A    between atoms: _213  and  _216
REMARK   82  A    between atoms: _216  and  _217
REMARK   83  A    between atoms: _222  and  _223
REMARK   84  A    between atoms: _225  and  _227
REMARK   85  A    between atoms: _227  and  _228
REMARK   86  A    between atoms: _230  and  _232
REMARK   87  A    between atoms: _232  and  _233
REMARK   88  A    between atoms: _235  and  _237
REMARK   89  A    between atoms: _237  and  _238
REMARK   90  A    between atoms: _237  and  _240
REMARK   91  A    between atoms: _240  and  _241
REMARK   92  A    between atoms: _246  and  _247
REMARK   93  A    between atoms: _249  and  _251
REMARK   94  A    between atoms: _251  and  _252
REMARK   95  A    between atoms: _251  and  _254
REMARK   96  A    between atoms: _254  and  _255
REMARK   97  A    between atoms: _258  and  _260
REMARK   98  A    between atoms: _260  and  _261
REMARK   99  A    between atoms: _264  and  _266
REMARK  100  A    between atoms: _266  and  _267
REMARK  101  A    between atoms: _269  and  _271
REMARK  102  A    between atoms: _271  and  _272
REMARK  103  A    between atoms: _271  and  _274
REMARK  104  A    between atoms: _274  and  _275
REMARK  105  A    between atoms: _278  and  _280
REMARK  106  A    between atoms: _280  and  _281
REMARK  107  A    between atoms: _280  and  _283
REMARK  108  A    between atoms: _283  and  _284
REMARK  109  A    between atoms: _287  and  _289
REMARK  110  A    between atoms: _289  and  _290
REMARK  111  A    between atoms: _289  and  _292
REMARK  112  A    between atoms: _292  and  _293
REMARK  113  A    between atoms: _296  and  _298
REMARK  114  A    between atoms: _298  and  _299
REMARK  115  A    between atoms: _298  and  _301
REMARK  116  A    between atoms: _304  and  _306
REMARK  117  A    between atoms: _306  and  _307
REMARK  118  A    between atoms: _306  and  _309
REMARK  119  A    between atoms: _309  and  _310
REMARK  120  A    between atoms: _313  and  _315
REMARK  121  A    between atoms: _315  and  _316
REMARK  122  A    between atoms: _315  and  _318
REMARK  123  A    between atoms: _318  and  _319
REMARK  124  A    between atoms: _324  and  _325
REMARK  125  A    between atoms: _327  and  _329
REMARK  126  A    between atoms: _329  and  _330
REMARK  127  A    between atoms: _329  and  _332
REMARK  128  A    between atoms: _332  and  _333
REMARK  129  A    between atoms: _333  and  _334
REMARK  130  A    between atoms: _336  and  _338
REMARK  131  A    between atoms: _338  and  _339
REMARK  132  A    between atoms: _338  and  _341
REMARK  133  A    between atoms: _341  and  _342
REMARK  134  A    between atoms: _347  and  _349
REMARK  135  A    between atoms: _349  and  _350
REMARK  136  A    between atoms: _349  and  _352
REMARK  137  A    between atoms: _352  and  _353
REMARK  138  A    between atoms: _358  and  _359
REMARK  139  A    between atoms: _361  and  _363
REMARK  140  A    between atoms: _363  and  _364
REMARK  141  A    between atoms: _363  and  _366
REMARK  142  A    between atoms: _366  and  _367
REMARK  143  A    between atoms: _372  and  _373
REMARK  144  A    between atoms: _375  and  _377
REMARK  145  A    between atoms: _377  and  _378
REMARK  146  A    between atoms: _377  and  _380
REMARK  147  A    between atoms: _380  and  _381
REMARK  148  A    between atoms: _384  and  _386
REMARK  149  A    between atoms: _386  and  _387
REMARK  150  A    between atoms: _386  and  _389
REMARK  151  A    between atoms: _389  and  _390
REMARK  152  A    between atoms: _395  and  _397
REMARK  153  A    between atoms: _397  and  _398
REMARK  154  A    between atoms: _397  and  _400
REMARK  155  A    between atoms: _400  and  _401
REMARK  156  A    between atoms: _401  and  _402
REMARK  157  A    between atoms: _407  and  _409
REMARK  158  A    between atoms: _409  and  _410
REMARK  159  A    between atoms: _409  and  _412
REMARK  160  A    between atoms: _412  and  _413
REMARK  161  A    between atoms: _416  and  _418
REMARK  162  A    between atoms: _418  and  _419
REMARK  163  A    between atoms: _421  and  _423
REMARK  164  A    between atoms: _423  and  _424
REMARK  165  A    between atoms: _423  and  _426
REMARK  166  A    between atoms: _430  and  _431
REMARK  167  A    between atoms: _436  and  _438
REMARK  168  A    between atoms: _438  and  _439
REMARK  169  A    between atoms: _442  and  _444
REMARK  170  A    between atoms: _444  and  _445
REMARK  171  A    between atoms: _444  and  _447
REMARK  172  A    between atoms: _447  and  _448
REMARK  173  A    between atoms: _454  and  _456
REMARK  174  A    between atoms: _456  and  _457
REMARK  175  A    between atoms: _456  and  _459
REMARK  176  A    between atoms: _459  and  _460
REMARK  177  A    between atoms: _463  and  _465
REMARK  178  A    between atoms: _465  and  _466
REMARK  179  A    between atoms: _465  and  _468
REMARK  180  A    between atoms: _468  and  _469
REMARK  181  A    between atoms: _469  and  _470
REMARK  182  A    between atoms: _473  and  _475
REMARK  183  A    between atoms: _475  and  _476
REMARK  184  A    between atoms: _475  and  _478
REMARK  185  A    between atoms: _478  and  _479
REMARK  186  A    between atoms: _484  and  _486
REMARK  187  A    between atoms: _486  and  _487
REMARK  188  A    between atoms: _489  and  _491
REMARK  189  A    between atoms: _491  and  _492
REMARK  190  A    between atoms: _491  and  _494
REMARK  191  A    between atoms: _494  and  _495
REMARK  192  A    between atoms: _495  and  _496
REMARK  193  A    between atoms: _498  and  _500
REMARK  194  A    between atoms: _500  and  _501
REMARK  195  A    between atoms: _503  and  _505
REMARK  196  A    between atoms: _505  and  _506
REMARK  197  A    between atoms: _505  and  _508
REMARK  198  A    between atoms: _508  and  _509
REMARK  199  A    between atoms: _519  and  _521
REMARK  200  A    between atoms: _521  and  _522
REMARK  201  A    between atoms: _525  and  _527
REMARK  202  A    between atoms: _527  and  _528
REMARK  203  A    between atoms: _527  and  _530
REMARK  204  A    between atoms: _530  and  _531
REMARK  205  A    between atoms: _534  and  _536
REMARK  206  A    between atoms: _536  and  _537
REMARK  207  A    between atoms: _536  and  _539
REMARK  208  A    between atoms: _539  and  _540
REMARK  209  A    between atoms: _545  and  _547
REMARK  210  A    between atoms: _547  and  _548
REMARK  211  A    between atoms: _547  and  _550
REMARK  212  A    between atoms: _550  and  _551
REMARK  213  A    between atoms: _557  and  _559
REMARK  214  A    between atoms: _559  and  _560
REMARK  215  A    between atoms: _559  and  _562
REMARK  216  A    between atoms: _562  and  _563
REMARK  217  A    between atoms: _563  and  _564
REMARK  218  A    between atoms: _567  and  _569
REMARK  219  A    between atoms: _569  and  _570
REMARK  220  A    between atoms: _569  and  _572
REMARK  221  A    between atoms: _572  and  _573
REMARK  222  A    between atoms: _583  and  _585
REMARK  223  A    between atoms: _585  and  _586
REMARK  224  A    between atoms: _585  and  _588
REMARK  225  A    between atoms: _588  and  _589
REMARK  226  A    between atoms: _592  and  _594
REMARK  227  A    between atoms: _594  and  _595
REMARK  228  A    between atoms: _594  and  _597
REMARK  229  A    between atoms: _597  and  _598
REMARK  230  A    between atoms: _600  and  _602
REMARK  231  A    between atoms: _602  and  _603
REMARK  232  A    between atoms: _605  and  _607
REMARK  233  A    between atoms: _607  and  _608
REMARK  234  A    between atoms: _607  and  _610
REMARK  235  A    between atoms: _610  and  _611
REMARK  236  A    between atoms: _614  and  _616
REMARK  237  A    between atoms: _616  and  _617
REMARK  238  A    between atoms: _616  and  _619
REMARK  239  A    between atoms: _619  and  _620
REMARK  240  A    between atoms: _620  and  _621
REMARK  241  A    between atoms: _626  and  _628
REMARK  242  A    between atoms: _628  and  _629
REMARK  243  A    between atoms: _628  and  _631
REMARK  244  A    between atoms: _631  and  _632
REMARK                            x       y       z     vdW  Elec       q    Type
REMARK                         _______ _______ _______ _____ _____    ______ ____
ROOT
ATOM      1  CG  TRP A   1       2.412  44.864  24.664  0.00  0.00    -0.002 A 
ATOM      2  CD2 TRP A   1       1.214  44.355  24.066  0.00  0.00    +0.013 A 
ATOM      3  CE3 TRP A   1      -0.148  44.617  24.251  0.00  0.00    +0.001 A 
ATOM      4  CZ3 TRP A   1      -1.072  43.907  23.491  0.00  0.00    +0.000 A 
ATOM      5  CH2 TRP A   1      -0.655  42.945  22.555  0.00  0.00    +0.001 A 
ATOM      6  CZ2 TRP A   1       0.671  42.672  22.354  0.00  0.00    +0.017 A 
ATOM      7  CE2 TRP A   1       1.599  43.387  23.115  0.00  0.00    +0.056 A 
ATOM      8  NE1 TRP A   1       2.968  43.321  23.125  0.00  0.00    -0.352 N 
ATOM      9  HE1 TRP A   1       3.547  42.695  22.530  0.00  0.00    +0.166 HD
ATOM     10  CD1 TRP A   1       3.451  44.216  24.049  0.00  0.00    +0.068 A 
ENDROOT
BRANCH   1  11
ATOM     11  CB  TRP A   1       2.504  45.954  25.696  0.00  0.00    +0.053 C 
BRANCH  11  12
ATOM     12  CA  TRP A   1       2.393  47.320  25.008  0.00  0.00    +0.137 C 
BRANCH  12  13
ATOM     13  N   TRP A   1       3.715  47.833  24.663  0.00  0.00    -0.239 NA
ATOM     14  H   TRP A   1       4.543  47.576  25.237  0.00  0.00    +0.142 HD
ENDBRANCH  12  13
BRANCH  12  15
ATOM     15  C   TRP A   1       1.609  48.328  25.853  0.00  0.00    +0.224 C 
ATOM     16  O   TRP A   1       0.392  48.441  25.704  0.00  0.00    -0.287 OA
ENDBRANCH  12  15
ENDBRANCH  11  12
ENDBRANCH   1  11
TORSDOF 4
REMARK  Name = ../refined-set-2016/3wq6/3wq6_pocket.pdb
REMARK  244 active torsions:
REMARK  status: ('A' for Active; 'I' for Inactive)
REMARK    1  A    between atoms: _1  and  _3
REMARK    2  A    between atoms: _3  and  _4
REMARK    3  A    between atoms: _7  and  _9
REMARK    4  A    between atoms: _9  and  _10
REMARK    5  A    between atoms: _9  and  _12
REMARK    6  A    between atoms: _12  and  _13
REMARK    7  A    between atoms: _15  and  _17
REMARK    8  A    between atoms: _17  and  _18
REMARK    9  A    between atoms: _17  and  _20
REMARK   10  A    between atoms: _20  and  _21
REMARK   11  A    between atoms: _23  and  _25
REMARK   12  A    between atoms: _25  and  _26
REMARK   13  A    between atoms: _29  and  _31
REMARK   14  A    between atoms: _31  and  _32
REMARK   15  A    between atoms: _31  and  _34
REMARK   16  A    between atoms: _34  and  _35
REMARK   17  A    between atoms: _40  and  _41
REMARK   18  A    between atoms: _43  and  _45
REMARK   19  A    between atoms: _45  and  _46
REMARK   20  A    between atoms: _45  and  _48
REMARK   21  A    between atoms: _48  and  _49
REMARK   22  A    between atoms: _49  and  _50
REMARK   23  A    between atoms: _55  and  _57
REMARK   24  A    between atoms: _57  and  _58
REMARK   25  A    between atoms: _57  and  _60
REMARK   26  A    between atoms: _60  and  _61
REMARK   27  A    between atoms: _67  and  _69
REMARK   28  A    between atoms: _69  and  _70
REMARK   29  A    between atoms: _69  and  _72
REMARK   30  A    between atoms: _72  and  _73
REMARK   31  A    between atoms: _83  and  _85
REMARK   32  A    between atoms: _85  and  _86
REMARK   33  A    between atoms: _85  and  _88
REMARK   34  A    between atoms: _88  and  _89
REMARK   35  A    between atoms: _91  and  _93
REMARK   36  A    between atoms: _93  and  _94
REMARK   37  A    between atoms: _93  and  _96
REMARK   38  A    between atoms: _96  and  _97
REMARK   39  A    between atoms: _97  and  _98
REMARK   40  A    between atoms: _98  and  _99
REMARK   41  A    between atoms: _108  and  _110
REMARK   42  A    between atoms: _110  and  _111
REMARK   43  A    between atoms: _110  and  _113
REMARK   44  A    between atoms: _113  and  _114
REMARK   45  A    between atoms: _117  and  _119
REMARK   46  A    between atoms: _119  and  _120
REMARK   47  A    between atoms: _119  and  _122
REMARK   48  A    between atoms: _122  and  _123
REMARK   49  A    between atoms: _128  and  _130
REMARK   50  A    between atoms: _130  and  _131
REMARK   51  A    between atoms: _130  and  _133
REMARK   52  A    between atoms: _133  and  _134
REMARK   53  A    between atoms: _144  and  _146
REMARK   54  A    between atoms: _146  and  _147
REMARK   55  A    between atoms: _146  and  _149
REMARK   56  A    between atoms: _149  and  _150
REMARK   57  A    between atoms: _155  and  _157
REMARK   58  A    between atoms: _157  and  _158
REMARK   59  A    between atoms: _157  and  _160
REMARK   60  A    between atoms: _160  and  _161
REMARK   61  A    between atoms: _161  and  _162
REMARK   62  A    between atoms: _165  and  _167
REMARK   63  A    between atoms: _167  and  _168
REMARK   64  A    between atoms: _167  and  _170
REMARK   65  A    between atoms: _170  and  _171
REMARK   66  A    between atoms: _181  and  _183
REMARK   67  A    between atoms: _183  and  _184
REMARK   68  A    between atoms: _183  and  _186
REMARK   69  A    between atoms: _186  and  _187
REMARK   70  A    between atoms: _189  and  _191
REMARK   71  A    between atoms: _191  and  _192
REMARK   72  A    between atoms: _191  and  _194
REMARK   73  A    between atoms: _194  and  _195
REMARK   74  A    between atoms: _200  and  _201
REMARK   75  A    between atoms: _203  and  _205
REMARK   76  A    between atoms: _205  and  _206
REMARK   77  A    between atoms: _205  and  _208
REMARK   78  A    between atoms: _208  and  _209
REMARK   79  A    between atoms: _211  and  _213
REMARK   80  A    between atoms: _213  and  _214
REMARK   81  A    between atoms: _213  and  _216
REMARK   82  A    between atoms: _216  and  _217
REMARK   83  A    between atoms: _222  and  _223
REMARK   84  A    between atoms: _225  and  _227
REMARK   85  A    between atoms: _227  and  _228
REMARK   86  A    between atoms: _230  and  _232
REMARK   87  A    between atoms: _232  and  _233
REMARK   88  A    between atoms: _235  and  _237
REMARK   89  A    between atoms: _237  and  _238
REMARK   90  A    between atoms: _237  and  _240
REMARK   91  A    between atoms: _240  and  _241
REMARK   92  A    between atoms: _246  and  _247
REMARK   93  A    between atoms: _249  and  _251
REMARK   94  A    between atoms: _251  and  _252
REMARK   95  A    between atoms: _251  and  _254
REMARK   96  A    between atoms: _254  and  _255
REMARK   97  A    between atoms: _258  and  _260
REMARK   98  A    between atoms: _260  and  _261
REMARK   99  A    between atoms: _264  and  _266
REMARK  100  A    between atoms: _266  and  _267
REMARK  101  A    between atoms: _269  and  _271
REMARK  102  A    between atoms: _271  and  _272
REMARK  103  A    between atoms: _271  and  _274
REMARK  104  A    between atoms: _274  and  _275
REMARK  105  A    between atoms: _278  and  _280
REMARK  106  A    between atoms: _280  and  _281
REMARK  107  A    between atoms: _280  and  _283
REMARK  108  A    between atoms: _283  and  _284
REMARK  109  A    between atoms: _287  and  _289
REMARK  110  A    between atoms: _289  and  _290
REMARK  111  A    between atoms: _289  and  _292
REMARK  112  A    between atoms: _292  and  _293
REMARK  113  A    between atoms: _296  and  _298
REMARK  114  A    between atoms: _298  and  _299
REMARK  115  A    between atoms: _298  and  _301
REMARK  116  A    between atoms: _304  and  _306
REMARK  117  A    between atoms: _306  and  _307
REMARK  118  A    between atoms: _306  and  _309
REMARK  119  A    between atoms: _309  and  _310
REMARK  120  A    between atoms: _313  and  _315
REMARK  121  A    between atoms: _315  and  _316
REMARK  122  A    between atoms: _315  and  _318
REMARK  123  A    between atoms: _318  and  _319
REMARK  124  A    between atoms: _324  and  _325
REMARK  125  A    between atoms: _327  and  _329
REMARK  126  A    between atoms: _329  and  _330
REMARK  127  A    between atoms: _329  and  _332
REMARK  128  A    between atoms: _332  and  _333
REMARK  129  A    between atoms: _333  and  _334
REMARK  130  A    between atoms: _336  and  _338
REMARK  131  A    between atoms: _338  and  _339
REMARK  132  A    between atoms: _338  and  _341
REMARK  133  A    between atoms: _341  and  _342
REMARK  134  A    between atoms: _347  and  _349
REMARK  135  A    between atoms: _349  and  _350
REMARK  136  A    between atoms: _349  and  _352
REMARK  137  A    between atoms: _352  and  _353
REMARK  138  A    between atoms: _358  and  _359
REMARK  139  A    between atoms: _361  and  _363
REMARK  140  A    between atoms: _363  and  _364
REMARK  141  A    between atoms: _363  and  _366
REMARK  142  A    between atoms: _366  and  _367
REMARK  143  A    between atoms: _372  and  _373
REMARK  144  A    between atoms: _375  and  _377
REMARK  145  A    between atoms: _377  and  _378
REMARK  146  A    between atoms: _377  and  _380
REMARK  147  A    between atoms: _380  and  _381
REMARK  148  A    between atoms: _384  and  _386
REMARK  149  A    between atoms: _386  and  _387
REMARK  150  A    between atoms: _386  and  _389
REMARK  151  A    between atoms: _389  and  _390
REMARK  152  A    between atoms: _395  and  _397
REMARK  153  A    between atoms: _397  and  _398
REMARK  154  A    between atoms: _397  and  _400
REMARK  155  A    between atoms: _400  and  _401
REMARK  156  A    between atoms: _401  and  _402
REMARK  157  A    between atoms: _407  and  _409
REMARK  158  A    between atoms: _409  and  _410
REMARK  159  A    between atoms: _409  and  _412
REMARK  160  A    between atoms: _412  and  _413
REMARK  161  A    between atoms: _416  and  _418
REMARK  162  A    between atoms: _418  and  _419
REMARK  163  A    between atoms: _421  and  _423
REMARK  164  A    between atoms: _423  and  _424
REMARK  165  A    between atoms: _423  and  _426
REMARK  166  A    between atoms: _430  and  _431
REMARK  167  A    between atoms: _436  and  _438
REMARK  168  A    between atoms: _438  and  _439
REMARK  169  A    between atoms: _442  and  _444
REMARK  170  A    between atoms: _444  and  _445
REMARK  171  A    between atoms: _444  and  _447
REMARK  172  A    between atoms: _447  and  _448
REMARK  173  A    between atoms: _454  and  _456
REMARK  174  A    between atoms: _456  and  _457
REMARK  175  A    between atoms: _456  and  _459
REMARK  176  A    between atoms: _459  and  _460
REMARK  177  A    between atoms: _463  and  _465
REMARK  178  A    between atoms: _465  and  _466
REMARK  179  A    between atoms: _465  and  _468
REMARK  180  A    between atoms: _468  and  _469
REMARK  181  A    between atoms: _469  and  _470
REMARK  182  A    between atoms: _473  and  _475
REMARK  183  A    between atoms: _475  and  _476
REMARK  184  A    between atoms: _475  and  _478
REMARK  185  A    between atoms: _478  and  _479
REMARK  186  A    between atoms: _484  and  _486
REMARK  187  A    between atoms: _486  and  _487
REMARK  188  A    between atoms: _489  and  _491
REMARK  189  A    between atoms: _491  and  _492
REMARK  190  A    between atoms: _491  and  _494
REMARK  191  A    between atoms: _494  and  _495
REMARK  192  A    between atoms: _495  and  _496
REMARK  193  A    between atoms: _498  and  _500
REMARK  194  A    between atoms: _500  and  _501
REMARK  195  A    between atoms: _503  and  _505
REMARK  196  A    between atoms: _505  and  _506
REMARK  197  A    between atoms: _505  and  _508
REMARK  198  A    between atoms: _508  and  _509
REMARK  199  A    between atoms: _519  and  _521
REMARK  200  A    between atoms: _521  and  _522
REMARK  201  A    between atoms: _525  and  _527
REMARK  202  A    between atoms: _527  and  _528
REMARK  203  A    between atoms: _527  and  _530
REMARK  204  A    between atoms: _530  and  _531
REMARK  205  A    between atoms: _534  and  _536
REMARK  206  A    between atoms: _536  and  _537
REMARK  207  A    between atoms: _536  and  _539
REMARK  208  A    between atoms: _539  and  _540
REMARK  209  A    between atoms: _545  and  _547
REMARK  210  A    between atoms: _547  and  _548
REMARK  211  A    between atoms: _547  and  _550
REMARK  212  A    between atoms: _550  and  _551
REMARK  213  A    between atoms: _557  and  _559
REMARK  214  A    between atoms: _559  and  _560
REMARK  215  A    between atoms: _559  and  _562
REMARK  216  A    between atoms: _562  and  _563
REMARK  217  A    between atoms: _563  and  _564
REMARK  218  A    between atoms: _567  and  _569
REMARK  219  A    between atoms: _569  and  _570
REMARK  220  A    between atoms: _569  and  _572
REMARK  221  A    between atoms: _572  and  _573
REMARK  222  A    between atoms: _583  and  _585
REMARK  223  A    between atoms: _585  and  _586
REMARK  224  A    between atoms: _585  and  _588
REMARK  225  A    between atoms: _588  and  _589
REMARK  226  A    between atoms: _592  and  _594
REMARK  227  A    between atoms: _594  and  _595
REMARK  228  A    between atoms: _594  and  _597
REMARK  229  A    between atoms: _597  and  _598
REMARK  230  A    between atoms: _600  and  _602
REMARK  231  A    between atoms: _602  and  _603
REMARK  232  A    between atoms: _605  and  _607
REMARK  233  A    between atoms: _607  and  _608
REMARK  234  A    between atoms: _607  and  _610
REMARK  235  A    between atoms: _610  and  _611
REMARK  236  A    between atoms: _614  and  _616
REMARK  237  A    between atoms: _616  and  _617
REMARK  238  A    between atoms: _616  and  _619
REMARK  239  A    between atoms: _619  and  _620
REMARK  240  A    between atoms: _620  and  _621
REMARK  241  A    between atoms: _626  and  _628
REMARK  242  A    between atoms: _628  and  _629
REMARK  243  A    between atoms: _628  and  _631
REMARK  244  A    between atoms: _631  and  _632
REMARK                            x       y       z     vdW  Elec       q    Type
REMARK                         _______ _______ _______ _____ _____    ______ ____
ROOT
ATOM      1  CA  SER A   1     -11.365  43.195  24.029  0.00  0.00    +0.163 C 
ENDROOT
BRANCH   1   2
ATOM      2  N   SER A   1     -10.003  43.459  23.557  0.00  0.00    -0.237 NA
ATOM      3  H   SER A   1      -9.347  42.666  23.407  0.00  0.00    +0.142 HD
ENDBRANCH   1   2
BRANCH   1   4
ATOM      4  C   SER A   1     -11.693  44.035  25.269  0.00  0.00    +0.227 C 
ATOM      5  O   SER A   1     -10.912  44.089  26.217  0.00  0.00    -0.287 OA
ENDBRANCH   1   4
BRANCH   1   6
ATOM      6  CB  SER A   1     -11.555  41.709  24.330  0.00  0.00    +0.162 C 
BRANCH   6   7
ATOM      7  OG  SER A   1     -11.324  40.931  23.172  0.00  0.00    -0.380 OA
ATOM      8  H   SER A   1     -10.397  41.078  22.856  0.00  0.00    +0.211 HD
ENDBRANCH   6   7
ENDBRANCH   1   6
TORSDOF 4
REMARK  Name = ../refined-set-2016/3wq6/3wq6_pocket.pdb
REMARK  244 active torsions:
REMARK  status: ('A' for Active; 'I' for Inactive)
REMARK    1  A    between atoms: _1  and  _3
REMARK    2  A    between atoms: _3  and  _4
REMARK    3  A    between atoms: _7  and  _9
REMARK    4  A    between atoms: _9  and  _10
REMARK    5  A    between atoms: _9  and  _12
REMARK    6  A    between atoms: _12  and  _13
REMARK    7  A    between atoms: _15  and  _17
REMARK    8  A    between atoms: _17  and  _18
REMARK    9  A    between atoms: _17  and  _20
REMARK   10  A    between atoms: _20  and  _21
REMARK   11  A    between atoms: _23  and  _25
REMARK   12  A    between atoms: _25  and  _26
REMARK   13  A    between atoms: _29  and  _31
REMARK   14  A    between atoms: _31  and  _32
REMARK   15  A    between atoms: _31  and  _34
REMARK   16  A    between atoms: _34  and  _35
REMARK   17  A    between atoms: _40  and  _41
REMARK   18  A    between atoms: _43  and  _45
REMARK   19  A    between atoms: _45  and  _46
REMARK   20  A    between atoms: _45  and  _48
REMARK   21  A    between atoms: _48  and  _49
REMARK   22  A    between atoms: _49  and  _50
REMARK   23  A    between atoms: _55  and  _57
REMARK   24  A    between atoms: _57  and  _58
REMARK   25  A    between atoms: _57  and  _60
REMARK   26  A    between atoms: _60  and  _61
REMARK   27  A    between atoms: _67  and  _69
REMARK   28  A    between atoms: _69  and  _70
REMARK   29  A    between atoms: _69  and  _72
REMARK   30  A    between atoms: _72  and  _73
REMARK   31  A    between atoms: _83  and  _85
REMARK   32  A    between atoms: _85  and  _86
REMARK   33  A    between atoms: _85  and  _88
REMARK   34  A    between atoms: _88  and  _89
REMARK   35  A    between atoms: _91  and  _93
REMARK   36  A    between atoms: _93  and  _94
REMARK   37  A    between atoms: _93  and  _96
REMARK   38  A    between atoms: _96  and  _97
REMARK   39  A    between atoms: _97  and  _98
REMARK   40  A    between atoms: _98  and  _99
REMARK   41  A    between atoms: _108  and  _110
REMARK   42  A    between atoms: _110  and  _111
REMARK   43  A    between atoms: _110  and  _113
REMARK   44  A    between atoms: _113  and  _114
REMARK   45  A    between atoms: _117  and  _119
REMARK   46  A    between atoms: _119  and  _120
REMARK   47  A    between atoms: _119  and  _122
REMARK   48  A    between atoms: _122  and  _123
REMARK   49  A    between atoms: _128  and  _130
REMARK   50  A    between atoms: _130  and  _131
REMARK   51  A    between atoms: _130  and  _133
REMARK   52  A    between atoms: _133  and  _134
REMARK   53  A    between atoms: _144  and  _146
REMARK   54  A    between atoms: _146  and  _147
REMARK   55  A    between atoms: _146  and  _149
REMARK   56  A    between atoms: _149  and  _150
REMARK   57  A    between atoms: _155  and  _157
REMARK   58  A    between atoms: _157  and  _158
REMARK   59  A    between atoms: _157  and  _160
REMARK   60  A    between atoms: _160  and  _161
REMARK   61  A    between atoms: _161  and  _162
REMARK   62  A    between atoms: _165  and  _167
REMARK   63  A    between atoms: _167  and  _168
REMARK   64  A    between atoms: _167  and  _170
REMARK   65  A    between atoms: _170  and  _171
REMARK   66  A    between atoms: _181  and  _183
REMARK   67  A    between atoms: _183  and  _184
REMARK   68  A    between atoms: _183  and  _186
REMARK   69  A    between atoms: _186  and  _187
REMARK   70  A    between atoms: _189  and  _191
REMARK   71  A    between atoms: _191  and  _192
REMARK   72  A    between atoms: _191  and  _194
REMARK   73  A    between atoms: _194  and  _195
REMARK   74  A    between atoms: _200  and  _201
REMARK   75  A    between atoms: _203  and  _205
REMARK   76  A    between atoms: _205  and  _206
REMARK   77  A    between atoms: _205  and  _208
REMARK   78  A    between atoms: _208  and  _209
REMARK   79  A    between atoms: _211  and  _213
REMARK   80  A    between atoms: _213  and  _214
REMARK   81  A    between atoms: _213  and  _216
REMARK   82  A    between atoms: _216  and  _217
REMARK   83  A    between atoms: _222  and  _223
REMARK   84  A    between atoms: _225  and  _227
REMARK   85  A    between atoms: _227  and  _228
REMARK   86  A    between atoms: _230  and  _232
REMARK   87  A    between atoms: _232  and  _233
REMARK   88  A    between atoms: _235  and  _237
REMARK   89  A    between atoms: _237  and  _238
REMARK   90  A    between atoms: _237  and  _240
REMARK   91  A    between atoms: _240  and  _241
REMARK   92  A    between atoms: _246  and  _247
REMARK   93  A    between atoms: _249  and  _251
REMARK   94  A    between atoms: _251  and  _252
REMARK   95  A    between atoms: _251  and  _254
REMARK   96  A    between atoms: _254  and  _255
REMARK   97  A    between atoms: _258  and  _260
REMARK   98  A    between atoms: _260  and  _261
REMARK   99  A    between atoms: _264  and  _266
REMARK  100  A    between atoms: _266  and  _267
REMARK  101  A    between atoms: _269  and  _271
REMARK  102  A    between atoms: _271  and  _272
REMARK  103  A    between atoms: _271  and  _274
REMARK  104  A    between atoms: _274  and  _275
REMARK  105  A    between atoms: _278  and  _280
REMARK  106  A    between atoms: _280  and  _281
REMARK  107  A    between atoms: _280  and  _283
REMARK  108  A    between atoms: _283  and  _284
REMARK  109  A    between atoms: _287  and  _289
REMARK  110  A    between atoms: _289  and  _290
REMARK  111  A    between atoms: _289  and  _292
REMARK  112  A    between atoms: _292  and  _293
REMARK  113  A    between atoms: _296  and  _298
REMARK  114  A    between atoms: _298  and  _299
REMARK  115  A    between atoms: _298  and  _301
REMARK  116  A    between atoms: _304  and  _306
REMARK  117  A    between atoms: _306  and  _307
REMARK  118  A    between atoms: _306  and  _309
REMARK  119  A    between atoms: _309  and  _310
REMARK  120  A    between atoms: _313  and  _315
REMARK  121  A    between atoms: _315  and  _316
REMARK  122  A    between atoms: _315  and  _318
REMARK  123  A    between atoms: _318  and  _319
REMARK  124  A    between atoms: _324  and  _325
REMARK  125  A    between atoms: _327  and  _329
REMARK  126  A    between atoms: _329  and  _330
REMARK  127  A    between atoms: _329  and  _332
REMARK  128  A    between atoms: _332  and  _333
REMARK  129  A    between atoms: _333  and  _334
REMARK  130  A    between atoms: _336  and  _338
REMARK  131  A    between atoms: _338  and  _339
REMARK  132  A    between atoms: _338  and  _341
REMARK  133  A    between atoms: _341  and  _342
REMARK  134  A    between atoms: _347  and  _349
REMARK  135  A    between atoms: _349  and  _350
REMARK  136  A    between atoms: _349  and  _352
REMARK  137  A    between atoms: _352  and  _353
REMARK  138  A    between atoms: _358  and  _359
REMARK  139  A    between atoms: _361  and  _363
REMARK  140  A    between atoms: _363  and  _364
REMARK  141  A    between atoms: _363  and  _366
REMARK  142  A    between atoms: _366  and  _367
REMARK  143  A    between atoms: _372  and  _373
REMARK  144  A    between atoms: _375  and  _377
REMARK  145  A    between atoms: _377  and  _378
REMARK  146  A    between atoms: _377  and  _380
REMARK  147  A    between atoms: _380  and  _381
REMARK  148  A    between atoms: _384  and  _386
REMARK  149  A    between atoms: _386  and  _387
REMARK  150  A    between atoms: _386  and  _389
REMARK  151  A    between atoms: _389  and  _390
REMARK  152  A    between atoms: _395  and  _397
REMARK  153  A    between atoms: _397  and  _398
REMARK  154  A    between atoms: _397  and  _400
REMARK  155  A    between atoms: _400  and  _401
REMARK  156  A    between atoms: _401  and  _402
REMARK  157  A    between atoms: _407  and  _409
REMARK  158  A    between atoms: _409  and  _410
REMARK  159  A    between atoms: _409  and  _412
REMARK  160  A    between atoms: _412  and  _413
REMARK  161  A    between atoms: _416  and  _418
REMARK  162  A    between atoms: _418  and  _419
REMARK  163  A    between atoms: _421  and  _423
REMARK  164  A    between atoms: _423  and  _424
REMARK  165  A    between atoms: _423  and  _426
REMARK  166  A    between atoms: _430  and  _431
REMARK  167  A    between atoms: _436  and  _438
REMARK  168  A    between atoms: _438  and  _439
REMARK  169  A    between atoms: _442  and  _444
REMARK  170  A    between atoms: _444  and  _445
REMARK  171  A    between atoms: _444  and  _447
REMARK  172  A    between atoms: _447  and  _448
REMARK  173  A    between atoms: _454  and  _456
REMARK  174  A    between atoms: _456  and  _457
REMARK  175  A    between atoms: _456  and  _459
REMARK  176  A    between atoms: _459  and  _460
REMARK  177  A    between atoms: _463  and  _465
REMARK  178  A    between atoms: _465  and  _466
REMARK  179  A    between atoms: _465  and  _468
REMARK  180  A    between atoms: _468  and  _469
REMARK  181  A    between atoms: _469  and  _470
REMARK  182  A    between atoms: _473  and  _475
REMARK  183  A    between atoms: _475  and  _476
REMARK  184  A    between atoms: _475  and  _478
REMARK  185  A    between atoms: _478  and  _479
REMARK  186  A    between atoms: _484  and  _486
REMARK  187  A    between atoms: _486  and  _487
REMARK  188  A    between atoms: _489  and  _491
REMARK  189  A    between atoms: _491  and  _492
REMARK  190  A    between atoms: _491  and  _494
REMARK  191  A    between atoms: _494  and  _495
REMARK  192  A    between atoms: _495  and  _496
REMARK  193  A    between atoms: _498  and  _500
REMARK  194  A    between atoms: _500  and  _501
REMARK  195  A    between atoms: _503  and  _505
REMARK  196  A    between atoms: _505  and  _506
REMARK  197  A    between atoms: _505  and  _508
REMARK  198  A    between atoms: _508  and  _509
REMARK  199  A    between atoms: _519  and  _521
REMARK  200  A    between atoms: _521  and  _522
REMARK  201  A    between atoms: _525  and  _527
REMARK  202  A    between atoms: _527  and  _528
REMARK  203  A    between atoms: _527  and  _530
REMARK  204  A    between atoms: _530  and  _531
REMARK  205  A    between atoms: _534  and  _536
REMARK  206  A    between atoms: _536  and  _537
REMARK  207  A    between atoms: _536  and  _539
REMARK  208  A    between atoms: _539  and  _540
REMARK  209  A    between atoms: _545  and  _547
REMARK  210  A    between atoms: _547  and  _548
REMARK  211  A    between atoms: _547  and  _550
REMARK  212  A    between atoms: _550  and  _551
REMARK  213  A    between atoms: _557  and  _559
REMARK  214  A    between atoms: _559  and  _560
REMARK  215  A    between atoms: _559  and  _562
REMARK  216  A    between atoms: _562  and  _563
REMARK  217  A    between atoms: _563  and  _564
REMARK  218  A    between atoms: _567  and  _569
REMARK  219  A    between atoms: _569  and  _570
REMARK  220  A    between atoms: _569  and  _572
REMARK  221  A    between atoms: _572  and  _573
REMARK  222  A    between atoms: _583  and  _585
REMARK  223  A    between atoms: _585  and  _586
REMARK  224  A    between atoms: _585  and  _588
REMARK  225  A    between atoms: _588  and  _589
REMARK  226  A    between atoms: _592  and  _594
REMARK  227  A    between atoms: _594  and  _595
REMARK  228  A    between atoms: _594  and  _597
REMARK  229  A    between atoms: _597  and  _598
REMARK  230  A    between atoms: _600  and  _602
REMARK  231  A    between atoms: _602  and  _603
REMARK  232  A    between atoms: _605  and  _607
REMARK  233  A    between atoms: _607  and  _608
REMARK  234  A    between atoms: _607  and  _610
REMARK  235  A    between atoms: _610  and  _611
REMARK  236  A    between atoms: _614  and  _616
REMARK  237  A    between atoms: _616  and  _617
REMARK  238  A    between atoms: _616  and  _619
REMARK  239  A    between atoms: _619  and  _620
REMARK  240  A    between atoms: _620  and  _621
REMARK  241  A    between atoms: _626  and  _628
REMARK  242  A    between atoms: _628  and  _629
REMARK  243  A    between atoms: _628  and  _631
REMARK  244  A    between atoms: _631  and  _632
REMARK                            x       y       z     vdW  Elec       q    Type
REMARK                         _______ _______ _______ _____ _____    ______ ____
ROOT
ATOM      1  NE  ARG A   1       8.731  30.749  28.851  0.00  0.00    -0.265 N 
ATOM      2  HE  ARG A   1       9.692  31.147  28.837  0.00  0.00    +0.259 HD
ATOM      3  CZ  ARG A   1       7.906  31.109  27.874  0.00  0.00    +0.342 C 
ATOM      4  NH2 ARG A   1       6.679  30.603  27.807  0.00  0.00    -0.292 N 
ATOM      5 HH21 ARG A   1       6.358  29.920  28.523  0.00  0.00    +0.255 HD
ATOM      6 HH22 ARG A   1       6.039  30.890  27.039  0.00  0.00    +0.255 HD
ATOM      7  NH1 ARG A   1       8.320  31.968  26.951  0.00  0.00    -0.292 N 
ATOM      8 HH11 ARG A   1       9.284  32.355  26.996  0.00  0.00    +0.255 HD
ATOM      9 HH12 ARG A   1       7.680  32.255  26.183  0.00  0.00    +0.255 HD
ENDROOT
BRANCH   1  10
ATOM     10  CD  ARG A   1       8.397  29.841  29.941  0.00  0.00    +0.174 C 
BRANCH  10  11
ATOM     11  CG  ARG A   1       8.507  30.596  31.267  0.00  0.00    +0.045 C 
BRANCH  11  12
ATOM     12  CB  ARG A   1       8.221  29.722  32.479  0.00  0.00    +0.029 C 
BRANCH  12  13
ATOM     13  CA  ARG A   1       8.646  30.378  33.798  0.00  0.00    +0.133 C 
BRANCH  13  14
ATOM     14  N   ARG A   1       8.214  29.580  34.930  0.00  0.00    -0.239 NA
ATOM     15  H   ARG A   1       7.288  29.108  34.893  0.00  0.00    +0.142 HD
ENDBRANCH  13  14
BRANCH  13  16
ATOM     16  C   ARG A   1       8.075  31.789  33.917  0.00  0.00    +0.224 C 
ATOM     17  O   ARG A   1       6.872  31.967  34.091  0.00  0.00    -0.287 OA
ENDBRANCH  13  16
ENDBRANCH  12  13
ENDBRANCH  11  12
ENDBRANCH  10  11
ENDBRANCH   1  10
TORSDOF 6
REMARK  Name = ../refined-set-2016/3wq6/3wq6_pocket.pdb
REMARK  244 active torsions:
REMARK  status: ('A' for Active; 'I' for Inactive)
REMARK    1  A    between atoms: _1  and  _3
REMARK    2  A    between atoms: _3  and  _4
REMARK    3  A    between atoms: _7  and  _9
REMARK    4  A    between atoms: _9  and  _10
REMARK    5  A    between atoms: _9  and  _12
REMARK    6  A    between atoms: _12  and  _13
REMARK    7  A    between atoms: _15  and  _17
REMARK    8  A    between atoms: _17  and  _18
REMARK    9  A    between atoms: _17  and  _20
REMARK   10  A    between atoms: _20  and  _21
REMARK   11  A    between atoms: _23  and  _25
REMARK   12  A    between atoms: _25  and  _26
REMARK   13  A    between atoms: _29  and  _31
REMARK   14  A    between atoms: _31  and  _32
REMARK   15  A    between atoms: _31  and  _34
REMARK   16  A    between atoms: _34  and  _35
REMARK   17  A    between atoms: _40  and  _41
REMARK   18  A    between atoms: _43  and  _45
REMARK   19  A    between atoms: _45  and  _46
REMARK   20  A    between atoms: _45  and  _48
REMARK   21  A    between atoms: _48  and  _49
REMARK   22  A    between atoms: _49  and  _50
REMARK   23  A    between atoms: _55  and  _57
REMARK   24  A    between atoms: _57  and  _58
REMARK   25  A    between atoms: _57  and  _60
REMARK   26  A    between atoms: _60  and  _61
REMARK   27  A    between atoms: _67  and  _69
REMARK   28  A    between atoms: _69  and  _70
REMARK   29  A    between atoms: _69  and  _72
REMARK   30  A    between atoms: _72  and  _73
REMARK   31  A    between atoms: _83  and  _85
REMARK   32  A    between atoms: _85  and  _86
REMARK   33  A    between atoms: _85  and  _88
REMARK   34  A    between atoms: _88  and  _89
REMARK   35  A    between atoms: _91  and  _93
REMARK   36  A    between atoms: _93  and  _94
REMARK   37  A    between atoms: _93  and  _96
REMARK   38  A    between atoms: _96  and  _97
REMARK   39  A    between atoms: _97  and  _98
REMARK   40  A    between atoms: _98  and  _99
REMARK   41  A    between atoms: _108  and  _110
REMARK   42  A    between atoms: _110  and  _111
REMARK   43  A    between atoms: _110  and  _113
REMARK   44  A    between atoms: _113  and  _114
REMARK   45  A    between atoms: _117  and  _119
REMARK   46  A    between atoms: _119  and  _120
REMARK   47  A    between atoms: _119  and  _122
REMARK   48  A    between atoms: _122  and  _123
REMARK   49  A    between atoms: _128  and  _130
REMARK   50  A    between atoms: _130  and  _131
REMARK   51  A    between atoms: _130  and  _133
REMARK   52  A    between atoms: _133  and  _134
REMARK   53  A    between atoms: _144  and  _146
REMARK   54  A    between atoms: _146  and  _147
REMARK   55  A    between atoms: _146  and  _149
REMARK   56  A    between atoms: _149  and  _150
REMARK   57  A    between atoms: _155  and  _157
REMARK   58  A    between atoms: _157  and  _158
REMARK   59  A    between atoms: _157  and  _160
REMARK   60  A    between atoms: _160  and  _161
REMARK   61  A    between atoms: _161  and  _162
REMARK   62  A    between atoms: _165  and  _167
REMARK   63  A    between atoms: _167  and  _168
REMARK   64  A    between atoms: _167  and  _170
REMARK   65  A    between atoms: _170  and  _171
REMARK   66  A    between atoms: _181  and  _183
REMARK   67  A    between atoms: _183  and  _184
REMARK   68  A    between atoms: _183  and  _186
REMARK   69  A    between atoms: _186  and  _187
REMARK   70  A    between atoms: _189  and  _191
REMARK   71  A    between atoms: _191  and  _192
REMARK   72  A    between atoms: _191  and  _194
REMARK   73  A    between atoms: _194  and  _195
REMARK   74  A    between atoms: _200  and  _201
REMARK   75  A    between atoms: _203  and  _205
REMARK   76  A    between atoms: _205  and  _206
REMARK   77  A    between atoms: _205  and  _208
REMARK   78  A    between atoms: _208  and  _209
REMARK   79  A    between atoms: _211  and  _213
REMARK   80  A    between atoms: _213  and  _214
REMARK   81  A    between atoms: _213  and  _216
REMARK   82  A    between atoms: _216  and  _217
REMARK   83  A    between atoms: _222  and  _223
REMARK   84  A    between atoms: _225  and  _227
REMARK   85  A    between atoms: _227  and  _228
REMARK   86  A    between atoms: _230  and  _232
REMARK   87  A    between atoms: _232  and  _233
REMARK   88  A    between atoms: _235  and  _237
REMARK   89  A    between atoms: _237  and  _238
REMARK   90  A    between atoms: _237  and  _240
REMARK   91  A    between atoms: _240  and  _241
REMARK   92  A    between atoms: _246  and  _247
REMARK   93  A    between atoms: _249  and  _251
REMARK   94  A    between atoms: _251  and  _252
REMARK   95  A    between atoms: _251  and  _254
REMARK   96  A    between atoms: _254  and  _255
REMARK   97  A    between atoms: _258  and  _260
REMARK   98  A    between atoms: _260  and  _261
REMARK   99  A    between atoms: _264  and  _266
REMARK  100  A    between atoms: _266  and  _267
REMARK  101  A    between atoms: _269  and  _271
REMARK  102  A    between atoms: _271  and  _272
REMARK  103  A    between atoms: _271  and  _274
REMARK  104  A    between atoms: _274  and  _275
REMARK  105  A    between atoms: _278  and  _280
REMARK  106  A    between atoms: _280  and  _281
REMARK  107  A    between atoms: _280  and  _283
REMARK  108  A    between atoms: _283  and  _284
REMARK  109  A    between atoms: _287  and  _289
REMARK  110  A    between atoms: _289  and  _290
REMARK  111  A    between atoms: _289  and  _292
REMARK  112  A    between atoms: _292  and  _293
REMARK  113  A    between atoms: _296  and  _298
REMARK  114  A    between atoms: _298  and  _299
REMARK  115  A    between atoms: _298  and  _301
REMARK  116  A    between atoms: _304  and  _306
REMARK  117  A    between atoms: _306  and  _307
REMARK  118  A    between atoms: _306  and  _309
REMARK  119  A    between atoms: _309  and  _310
REMARK  120  A    between atoms: _313  and  _315
REMARK  121  A    between atoms: _315  and  _316
REMARK  122  A    between atoms: _315  and  _318
REMARK  123  A    between atoms: _318  and  _319
REMARK  124  A    between atoms: _324  and  _325
REMARK  125  A    between atoms: _327  and  _329
REMARK  126  A    between atoms: _329  and  _330
REMARK  127  A    between atoms: _329  and  _332
REMARK  128  A    between atoms: _332  and  _333
REMARK  129  A    between atoms: _333  and  _334
REMARK  130  A    between atoms: _336  and  _338
REMARK  131  A    between atoms: _338  and  _339
REMARK  132  A    between atoms: _338  and  _341
REMARK  133  A    between atoms: _341  and  _342
REMARK  134  A    between atoms: _347  and  _349
REMARK  135  A    between atoms: _349  and  _350
REMARK  136  A    between atoms: _349  and  _352
REMARK  137  A    between atoms: _352  and  _353
REMARK  138  A    between atoms: _358  and  _359
REMARK  139  A    between atoms: _361  and  _363
REMARK  140  A    between atoms: _363  and  _364
REMARK  141  A    between atoms: _363  and  _366
REMARK  142  A    between atoms: _366  and  _367
REMARK  143  A    between atoms: _372  and  _373
REMARK  144  A    between atoms: _375  and  _377
REMARK  145  A    between atoms: _377  and  _378
REMARK  146  A    between atoms: _377  and  _380
REMARK  147  A    between atoms: _380  and  _381
REMARK  148  A    between atoms: _384  and  _386
REMARK  149  A    between atoms: _386  and  _387
REMARK  150  A    between atoms: _386  and  _389
REMARK  151  A    between atoms: _389  and  _390
REMARK  152  A    between atoms: _395  and  _397
REMARK  153  A    between atoms: _397  and  _398
REMARK  154  A    between atoms: _397  and  _400
REMARK  155  A    between atoms: _400  and  _401
REMARK  156  A    between atoms: _401  and  _402
REMARK  157  A    between atoms: _407  and  _409
REMARK  158  A    between atoms: _409  and  _410
REMARK  159  A    between atoms: _409  and  _412
REMARK  160  A    between atoms: _412  and  _413
REMARK  161  A    between atoms: _416  and  _418
REMARK  162  A    between atoms: _418  and  _419
REMARK  163  A    between atoms: _421  and  _423
REMARK  164  A    between atoms: _423  and  _424
REMARK  165  A    between atoms: _423  and  _426
REMARK  166  A    between atoms: _430  and  _431
REMARK  167  A    between atoms: _436  and  _438
REMARK  168  A    between atoms: _438  and  _439
REMARK  169  A    between atoms: _442  and  _444
REMARK  170  A    between atoms: _444  and  _445
REMARK  171  A    between atoms: _444  and  _447
REMARK  172  A    between atoms: _447  and  _448
REMARK  173  A    between atoms: _454  and  _456
REMARK  174  A    between atoms: _456  and  _457
REMARK  175  A    between atoms: _456  and  _459
REMARK  176  A    between atoms: _459  and  _460
REMARK  177  A    between atoms: _463  and  _465
REMARK  178  A    between atoms: _465  and  _466
REMARK  179  A    between atoms: _465  and  _468
REMARK  180  A    between atoms: _468  and  _469
REMARK  181  A    between atoms: _469  and  _470
REMARK  182  A    between atoms: _473  and  _475
REMARK  183  A    between atoms: _475  and  _476
REMARK  184  A    between atoms: _475  and  _478
REMARK  185  A    between atoms: _478  and  _479
REMARK  186  A    between atoms: _484  and  _486
REMARK  187  A    between atoms: _486  and  _487
REMARK  188  A    between atoms: _489  and  _491
REMARK  189  A    between atoms: _491  and  _492
REMARK  190  A    between atoms: _491  and  _494
REMARK  191  A    between atoms: _494  and  _495
REMARK  192  A    between atoms: _495  and  _496
REMARK  193  A    between atoms: _498  and  _500
REMARK  194  A    between atoms: _500  and  _501
REMARK  195  A    between atoms: _503  and  _505
REMARK  196  A    between atoms: _505  and  _506
REMARK  197  A    between atoms: _505  and  _508
REMARK  198  A    between atoms: _508  and  _509
REMARK  199  A    between atoms: _519  and  _521
REMARK  200  A    between atoms: _521  and  _522
REMARK  201  A    between atoms: _525  and  _527
REMARK  202  A    between atoms: _527  and  _528
REMARK  203  A    between atoms: _527  and  _530
REMARK  204  A    between atoms: _530  and  _531
REMARK  205  A    between atoms: _534  and  _536
REMARK  206  A    between atoms: _536  and  _537
REMARK  207  A    between atoms: _536  and  _539
REMARK  208  A    between atoms: _539  and  _540
REMARK  209  A    between atoms: _545  and  _547
REMARK  210  A    between atoms: _547  and  _548
REMARK  211  A    between atoms: _547  and  _550
REMARK  212  A    between atoms: _550  and  _551
REMARK  213  A    between atoms: _557  and  _559
REMARK  214  A    between atoms: _559  and  _560
REMARK  215  A    between atoms: _559  and  _562
REMARK  216  A    between atoms: _562  and  _563
REMARK  217  A    between atoms: _563  and  _564
REMARK  218  A    between atoms: _567  and  _569
REMARK  219  A    between atoms: _569  and  _570
REMARK  220  A    between atoms: _569  and  _572
REMARK  221  A    between atoms: _572  and  _573
REMARK  222  A    between atoms: _583  and  _585
REMARK  223  A    between atoms: _585  and  _586
REMARK  224  A    between atoms: _585  and  _588
REMARK  225  A    between atoms: _588  and  _589
REMARK  226  A    between atoms: _592  and  _594
REMARK  227  A    between atoms: _594  and  _595
REMARK  228  A    between atoms: _594  and  _597
REMARK  229  A    between atoms: _597  and  _598
REMARK  230  A    between atoms: _600  and  _602
REMARK  231  A    between atoms: _602  and  _603
REMARK  232  A    between atoms: _605  and  _607
REMARK  233  A    between atoms: _607  and  _608
REMARK  234  A    between atoms: _607  and  _610
REMARK  235  A    between atoms: _610  and  _611
REMARK  236  A    between atoms: _614  and  _616
REMARK  237  A    between atoms: _616  and  _617
REMARK  238  A    between atoms: _616  and  _619
REMARK  239  A    between atoms: _619  and  _620
REMARK  240  A    between atoms: _620  and  _621
REMARK  241  A    between atoms: _626  and  _628
REMARK  242  A    between atoms: _628  and  _629
REMARK  243  A    between atoms: _628  and  _631
REMARK  244  A    between atoms: _631  and  _632
REMARK                            x       y       z     vdW  Elec       q    Type
REMARK                         _______ _______ _______ _____ _____    ______ ____
ROOT
ATOM      1  CA  THR A   1      12.419  34.509  29.400  0.00  0.00    +0.160 C 
ENDROOT
BRANCH   1   2
ATOM      2  N   THR A   1      12.515  33.944  30.738  0.00  0.00    -0.237 NA
ATOM      3  H   THR A   1      11.665  33.925  31.337  0.00  0.00    +0.142 HD
ENDBRANCH   1   2
BRANCH   1   4
ATOM      4  C   THR A   1      12.929  35.943  29.416  0.00  0.00    +0.227 C 
ATOM      5  O   THR A   1      12.380  36.792  30.108  0.00  0.00    -0.287 OA
ENDBRANCH   1   4
BRANCH   1   6
ATOM      6  CB  THR A   1      10.971  34.505  28.878  0.00  0.00    +0.134 C 
ATOM      7  CG2 THR A   1      10.926  34.961  27.416  0.00  0.00    +0.034 C 
BRANCH   6   8
ATOM      8  OG1 THR A   1      10.413  33.189  29.007  0.00  0.00    -0.383 OA
ATOM      9  HG1 THR A   1       9.482  33.192  28.670  0.00  0.00    +0.210 HD
ENDBRANCH   6   8
ENDBRANCH   1   6
TORSDOF 4
REMARK  Name = ../refined-set-2016/3wq6/3wq6_pocket.pdb
REMARK  244 active torsions:
REMARK  status: ('A' for Active; 'I' for Inactive)
REMARK    1  A    between atoms: _1  and  _3
REMARK    2  A    between atoms: _3  and  _4
REMARK    3  A    between atoms: _7  and  _9
REMARK    4  A    between atoms: _9  and  _10
REMARK    5  A    between atoms: _9  and  _12
REMARK    6  A    between atoms: _12  and  _13
REMARK    7  A    between atoms: _15  and  _17
REMARK    8  A    between atoms: _17  and  _18
REMARK    9  A    between atoms: _17  and  _20
REMARK   10  A    between atoms: _20  and  _21
REMARK   11  A    between atoms: _23  and  _25
REMARK   12  A    between atoms: _25  and  _26
REMARK   13  A    between atoms: _29  and  _31
REMARK   14  A    between atoms: _31  and  _32
REMARK   15  A    between atoms: _31  and  _34
REMARK   16  A    between atoms: _34  and  _35
REMARK   17  A    between atoms: _40  and  _41
REMARK   18  A    between atoms: _43  and  _45
REMARK   19  A    between atoms: _45  and  _46
REMARK   20  A    between atoms: _45  and  _48
REMARK   21  A    between atoms: _48  and  _49
REMARK   22  A    between atoms: _49  and  _50
REMARK   23  A    between atoms: _55  and  _57
REMARK   24  A    between atoms: _57  and  _58
REMARK   25  A    between atoms: _57  and  _60
REMARK   26  A    between atoms: _60  and  _61
REMARK   27  A    between atoms: _67  and  _69
REMARK   28  A    between atoms: _69  and  _70
REMARK   29  A    between atoms: _69  and  _72
REMARK   30  A    between atoms: _72  and  _73
REMARK   31  A    between atoms: _83  and  _85
REMARK   32  A    between atoms: _85  and  _86
REMARK   33  A    between atoms: _85  and  _88
REMARK   34  A    between atoms: _88  and  _89
REMARK   35  A    between atoms: _91  and  _93
REMARK   36  A    between atoms: _93  and  _94
REMARK   37  A    between atoms: _93  and  _96
REMARK   38  A    between atoms: _96  and  _97
REMARK   39  A    between atoms: _97  and  _98
REMARK   40  A    between atoms: _98  and  _99
REMARK   41  A    between atoms: _108  and  _110
REMARK   42  A    between atoms: _110  and  _111
REMARK   43  A    between atoms: _110  and  _113
REMARK   44  A    between atoms: _113  and  _114
REMARK   45  A    between atoms: _117  and  _119
REMARK   46  A    between atoms: _119  and  _120
REMARK   47  A    between atoms: _119  and  _122
REMARK   48  A    between atoms: _122  and  _123
REMARK   49  A    between atoms: _128  and  _130
REMARK   50  A    between atoms: _130  and  _131
REMARK   51  A    between atoms: _130  and  _133
REMARK   52  A    between atoms: _133  and  _134
REMARK   53  A    between atoms: _144  and  _146
REMARK   54  A    between atoms: _146  and  _147
REMARK   55  A    between atoms: _146  and  _149
REMARK   56  A    between atoms: _149  and  _150
REMARK   57  A    between atoms: _155  and  _157
REMARK   58  A    between atoms: _157  and  _158
REMARK   59  A    between atoms: _157  and  _160
REMARK   60  A    between atoms: _160  and  _161
REMARK   61  A    between atoms: _161  and  _162
REMARK   62  A    between atoms: _165  and  _167
REMARK   63  A    between atoms: _167  and  _168
REMARK   64  A    between atoms: _167  and  _170
REMARK   65  A    between atoms: _170  and  _171
REMARK   66  A    between atoms: _181  and  _183
REMARK   67  A    between atoms: _183  and  _184
REMARK   68  A    between atoms: _183  and  _186
REMARK   69  A    between atoms: _186  and  _187
REMARK   70  A    between atoms: _189  and  _191
REMARK   71  A    between atoms: _191  and  _192
REMARK   72  A    between atoms: _191  and  _194
REMARK   73  A    between atoms: _194  and  _195
REMARK   74  A    between atoms: _200  and  _201
REMARK   75  A    between atoms: _203  and  _205
REMARK   76  A    between atoms: _205  and  _206
REMARK   77  A    between atoms: _205  and  _208
REMARK   78  A    between atoms: _208  and  _209
REMARK   79  A    between atoms: _211  and  _213
REMARK   80  A    between atoms: _213  and  _214
REMARK   81  A    between atoms: _213  and  _216
REMARK   82  A    between atoms: _216  and  _217
REMARK   83  A    between atoms: _222  and  _223
REMARK   84  A    between atoms: _225  and  _227
REMARK   85  A    between atoms: _227  and  _228
REMARK   86  A    between atoms: _230  and  _232
REMARK   87  A    between atoms: _232  and  _233
REMARK   88  A    between atoms: _235  and  _237
REMARK   89  A    between atoms: _237  and  _238
REMARK   90  A    between atoms: _237  and  _240
REMARK   91  A    between atoms: _240  and  _241
REMARK   92  A    between atoms: _246  and  _247
REMARK   93  A    between atoms: _249  and  _251
REMARK   94  A    between atoms: _251  and  _252
REMARK   95  A    between atoms: _251  and  _254
REMARK   96  A    between atoms: _254  and  _255
REMARK   97  A    between atoms: _258  and  _260
REMARK   98  A    between atoms: _260  and  _261
REMARK   99  A    between atoms: _264  and  _266
REMARK  100  A    between atoms: _266  and  _267
REMARK  101  A    between atoms: _269  and  _271
REMARK  102  A    between atoms: _271  and  _272
REMARK  103  A    between atoms: _271  and  _274
REMARK  104  A    between atoms: _274  and  _275
REMARK  105  A    between atoms: _278  and  _280
REMARK  106  A    between atoms: _280  and  _281
REMARK  107  A    between atoms: _280  and  _283
REMARK  108  A    between atoms: _283  and  _284
REMARK  109  A    between atoms: _287  and  _289
REMARK  110  A    between atoms: _289  and  _290
REMARK  111  A    between atoms: _289  and  _292
REMARK  112  A    between atoms: _292  and  _293
REMARK  113  A    between atoms: _296  and  _298
REMARK  114  A    between atoms: _298  and  _299
REMARK  115  A    between atoms: _298  and  _301
REMARK  116  A    between atoms: _304  and  _306
REMARK  117  A    between atoms: _306  and  _307
REMARK  118  A    between atoms: _306  and  _309
REMARK  119  A    between atoms: _309  and  _310
REMARK  120  A    between atoms: _313  and  _315
REMARK  121  A    between atoms: _315  and  _316
REMARK  122  A    between atoms: _315  and  _318
REMARK  123  A    between atoms: _318  and  _319
REMARK  124  A    between atoms: _324  and  _325
REMARK  125  A    between atoms: _327  and  _329
REMARK  126  A    between atoms: _329  and  _330
REMARK  127  A    between atoms: _329  and  _332
REMARK  128  A    between atoms: _332  and  _333
REMARK  129  A    between atoms: _333  and  _334
REMARK  130  A    between atoms: _336  and  _338
REMARK  131  A    between atoms: _338  and  _339
REMARK  132  A    between atoms: _338  and  _341
REMARK  133  A    between atoms: _341  and  _342
REMARK  134  A    between atoms: _347  and  _349
REMARK  135  A    between atoms: _349  and  _350
REMARK  136  A    between atoms: _349  and  _352
REMARK  137  A    between atoms: _352  and  _353
REMARK  138  A    between atoms: _358  and  _359
REMARK  139  A    between atoms: _361  and  _363
REMARK  140  A    between atoms: _363  and  _364
REMARK  141  A    between atoms: _363  and  _366
REMARK  142  A    between atoms: _366  and  _367
REMARK  143  A    between atoms: _372  and  _373
REMARK  144  A    between atoms: _375  and  _377
REMARK  145  A    between atoms: _377  and  _378
REMARK  146  A    between atoms: _377  and  _380
REMARK  147  A    between atoms: _380  and  _381
REMARK  148  A    between atoms: _384  and  _386
REMARK  149  A    between atoms: _386  and  _387
REMARK  150  A    between atoms: _386  and  _389
REMARK  151  A    between atoms: _389  and  _390
REMARK  152  A    between atoms: _395  and  _397
REMARK  153  A    between atoms: _397  and  _398
REMARK  154  A    between atoms: _397  and  _400
REMARK  155  A    between atoms: _400  and  _401
REMARK  156  A    between atoms: _401  and  _402
REMARK  157  A    between atoms: _407  and  _409
REMARK  158  A    between atoms: _409  and  _410
REMARK  159  A    between atoms: _409  and  _412
REMARK  160  A    between atoms: _412  and  _413
REMARK  161  A    between atoms: _416  and  _418
REMARK  162  A    between atoms: _418  and  _419
REMARK  163  A    between atoms: _421  and  _423
REMARK  164  A    between atoms: _423  and  _424
REMARK  165  A    between atoms: _423  and  _426
REMARK  166  A    between atoms: _430  and  _431
REMARK  167  A    between atoms: _436  and  _438
REMARK  168  A    between atoms: _438  and  _439
REMARK  169  A    between atoms: _442  and  _444
REMARK  170  A    between atoms: _444  and  _445
REMARK  171  A    between atoms: _444  and  _447
REMARK  172  A    between atoms: _447  and  _448
REMARK  173  A    between atoms: _454  and  _456
REMARK  174  A    between atoms: _456  and  _457
REMARK  175  A    between atoms: _456  and  _459
REMARK  176  A    between atoms: _459  and  _460
REMARK  177  A    between atoms: _463  and  _465
REMARK  178  A    between atoms: _465  and  _466
REMARK  179  A    between atoms: _465  and  _468
REMARK  180  A    between atoms: _468  and  _469
REMARK  181  A    between atoms: _469  and  _470
REMARK  182  A    between atoms: _473  and  _475
REMARK  183  A    between atoms: _475  and  _476
REMARK  184  A    between atoms: _475  and  _478
REMARK  185  A    between atoms: _478  and  _479
REMARK  186  A    between atoms: _484  and  _486
REMARK  187  A    between atoms: _486  and  _487
REMARK  188  A    between atoms: _489  and  _491
REMARK  189  A    between atoms: _491  and  _492
REMARK  190  A    between atoms: _491  and  _494
REMARK  191  A    between atoms: _494  and  _495
REMARK  192  A    between atoms: _495  and  _496
REMARK  193  A    between atoms: _498  and  _500
REMARK  194  A    between atoms: _500  and  _501
REMARK  195  A    between atoms: _503  and  _505
REMARK  196  A    between atoms: _505  and  _506
REMARK  197  A    between atoms: _505  and  _508
REMARK  198  A    between atoms: _508  and  _509
REMARK  199  A    between atoms: _519  and  _521
REMARK  200  A    between atoms: _521  and  _522
REMARK  201  A    between atoms: _525  and  _527
REMARK  202  A    between atoms: _527  and  _528
REMARK  203  A    between atoms: _527  and  _530
REMARK  204  A    between atoms: _530  and  _531
REMARK  205  A    between atoms: _534  and  _536
REMARK  206  A    between atoms: _536  and  _537
REMARK  207  A    between atoms: _536  and  _539
REMARK  208  A    between atoms: _539  and  _540
REMARK  209  A    between atoms: _545  and  _547
REMARK  210  A    between atoms: _547  and  _548
REMARK  211  A    between atoms: _547  and  _550
REMARK  212  A    between atoms: _550  and  _551
REMARK  213  A    between atoms: _557  and  _559
REMARK  214  A    between atoms: _559  and  _560
REMARK  215  A    between atoms: _559  and  _562
REMARK  216  A    between atoms: _562  and  _563
REMARK  217  A    between atoms: _563  and  _564
REMARK  218  A    between atoms: _567  and  _569
REMARK  219  A    between atoms: _569  and  _570
REMARK  220  A    between atoms: _569  and  _572
REMARK  221  A    between atoms: _572  and  _573
REMARK  222  A    between atoms: _583  and  _585
REMARK  223  A    between atoms: _585  and  _586
REMARK  224  A    between atoms: _585  and  _588
REMARK  225  A    between atoms: _588  and  _589
REMARK  226  A    between atoms: _592  and  _594
REMARK  227  A    between atoms: _594  and  _595
REMARK  228  A    between atoms: _594  and  _597
REMARK  229  A    between atoms: _597  and  _598
REMARK  230  A    between atoms: _600  and  _602
REMARK  231  A    between atoms: _602  and  _603
REMARK  232  A    between atoms: _605  and  _607
REMARK  233  A    between atoms: _607  and  _608
REMARK  234  A    between atoms: _607  and  _610
REMARK  235  A    between atoms: _610  and  _611
REMARK  236  A    between atoms: _614  and  _616
REMARK  237  A    between atoms: _616  and  _617
REMARK  238  A    between atoms: _616  and  _619
REMARK  239  A    between atoms: _619  and  _620
REMARK  240  A    between atoms: _620  and  _621
REMARK  241  A    between atoms: _626  and  _628
REMARK  242  A    between atoms: _628  and  _629
REMARK  243  A    between atoms: _628  and  _631
REMARK  244  A    between atoms: _631  and  _632
REMARK                            x       y       z     vdW  Elec       q    Type
REMARK                         _______ _______ _______ _____ _____    ______ ____
ROOT
ATOM      1  CA  TRP A   2       7.399  41.152  23.530  0.00  0.00    +0.141 C 
ENDROOT
BRANCH   1   4
ATOM      2  C   HIS A   1       7.549  39.535  25.452  0.00  0.00    +0.239 C 
ATOM      3  O   HIS A   1       6.481  39.840  25.980  0.00  0.00    -0.274 OA
ATOM      4  N   TRP A   2       8.087  40.193  24.418  0.00  0.00    -0.298 N 
ATOM      5  H   TRP A   2       9.091  40.010  24.220  0.00  0.00    +0.150 HD
BRANCH   2   6
ATOM      6  CA  HIS A   1       8.391  38.361  25.984  0.00  0.00    +0.151 C 
BRANCH   6   7
ATOM      7  N   HIS A   1       9.739  38.826  26.297  0.00  0.00    -0.238 NA
ATOM      8  H   HIS A   1       9.865  39.535  27.048  0.00  0.00    +0.142 HD
ENDBRANCH   6   7
BRANCH   6   9
ATOM      9  CB  HIS A   1       7.754  37.710  27.225  0.00  0.00    +0.074 C 
BRANCH   9  10
ATOM     10  CG  HIS A   1       6.627  36.768  26.921  0.00  0.00    +0.082 A 
ATOM     11  ND1 HIS A   1       6.615  35.459  27.358  0.00  0.00    -0.227 NA
ATOM     12  CE1 HIS A   1       5.497  34.876  26.966  0.00  0.00    +0.199 A 
ATOM     13  NE2 HIS A   1       4.778  35.758  26.296  0.00  0.00    -0.221 NA
ATOM     14  CD2 HIS A   1       5.461  36.952  26.258  0.00  0.00    +0.115 A 
ENDBRANCH   9  10
ENDBRANCH   6   9
ENDBRANCH   2   6
ENDBRANCH   1   4
BRANCH   1  15
ATOM     15  C   TRP A   2       7.345  42.594  24.040  0.00  0.00    +0.227 C 
ATOM     16  O   TRP A   2       7.009  43.495  23.266  0.00  0.00    -0.286 OA
ENDBRANCH   1  15
BRANCH   1  17
ATOM     17  CB  TRP A   2       5.954  40.725  23.215  0.00  0.00    +0.056 C 
BRANCH  17  18
ATOM     18  CG  TRP A   2       5.765  39.320  22.723  0.00  0.00    -0.002 A 
ATOM     19  CD2 TRP A   2       4.512  38.647  22.557  0.00  0.00    +0.013 A 
ATOM     20  CE3 TRP A   2       3.177  39.021  22.760  0.00  0.00    +0.001 A 
ATOM     21  CZ3 TRP A   2       2.181  38.098  22.495  0.00  0.00    +0.000 A 
ATOM     22  CH2 TRP A   2       2.490  36.811  22.029  0.00  0.00    +0.001 A 
ATOM     23  CZ2 TRP A   2       3.788  36.417  21.822  0.00  0.00    +0.017 A 
ATOM     24  CE2 TRP A   2       4.793  37.346  22.089  0.00  0.00    +0.056 A 
ATOM     25  NE1 TRP A   2       6.157  37.235  21.970  0.00  0.00    -0.352 N 
ATOM     26  HE1 TRP A   2       6.669  36.391  21.643  0.00  0.00    +0.166 HD
ATOM     27  CD1 TRP A   2       6.736  38.426  22.355  0.00  0.00    +0.068 A 
ENDBRANCH  17  18
ENDBRANCH   1  17
TORSDOF 8
REMARK  Name = ../refined-set-2016/3wq6/3wq6_pocket.pdb
REMARK  244 active torsions:
REMARK  status: ('A' for Active; 'I' for Inactive)
REMARK    1  A    between atoms: _1  and  _3
REMARK    2  A    between atoms: _3  and  _4
REMARK    3  A    between atoms: _7  and  _9
REMARK    4  A    between atoms: _9  and  _10
REMARK    5  A    between atoms: _9  and  _12
REMARK    6  A    between atoms: _12  and  _13
REMARK    7  A    between atoms: _15  and  _17
REMARK    8  A    between atoms: _17  and  _18
REMARK    9  A    between atoms: _17  and  _20
REMARK   10  A    between atoms: _20  and  _21
REMARK   11  A    between atoms: _23  and  _25
REMARK   12  A    between atoms: _25  and  _26
REMARK   13  A    between atoms: _29  and  _31
REMARK   14  A    between atoms: _31  and  _32
REMARK   15  A    between atoms: _31  and  _34
REMARK   16  A    between atoms: _34  and  _35
REMARK   17  A    between atoms: _40  and  _41
REMARK   18  A    between atoms: _43  and  _45
REMARK   19  A    between atoms: _45  and  _46
REMARK   20  A    between atoms: _45  and  _48
REMARK   21  A    between atoms: _48  and  _49
REMARK   22  A    between atoms: _49  and  _50
REMARK   23  A    between atoms: _55  and  _57
REMARK   24  A    between atoms: _57  and  _58
REMARK   25  A    between atoms: _57  and  _60
REMARK   26  A    between atoms: _60  and  _61
REMARK   27  A    between atoms: _67  and  _69
REMARK   28  A    between atoms: _69  and  _70
REMARK   29  A    between atoms: _69  and  _72
REMARK   30  A    between atoms: _72  and  _73
REMARK   31  A    between atoms: _83  and  _85
REMARK   32  A    between atoms: _85  and  _86
REMARK   33  A    between atoms: _85  and  _88
REMARK   34  A    between atoms: _88  and  _89
REMARK   35  A    between atoms: _91  and  _93
REMARK   36  A    between atoms: _93  and  _94
REMARK   37  A    between atoms: _93  and  _96
REMARK   38  A    between atoms: _96  and  _97
REMARK   39  A    between atoms: _97  and  _98
REMARK   40  A    between atoms: _98  and  _99
REMARK   41  A    between atoms: _108  and  _110
REMARK   42  A    between atoms: _110  and  _111
REMARK   43  A    between atoms: _110  and  _113
REMARK   44  A    between atoms: _113  and  _114
REMARK   45  A    between atoms: _117  and  _119
REMARK   46  A    between atoms: _119  and  _120
REMARK   47  A    between atoms: _119  and  _122
REMARK   48  A    between atoms: _122  and  _123
REMARK   49  A    between atoms: _128  and  _130
REMARK   50  A    between atoms: _130  and  _131
REMARK   51  A    between atoms: _130  and  _133
REMARK   52  A    between atoms: _133  and  _134
REMARK   53  A    between atoms: _144  and  _146
REMARK   54  A    between atoms: _146  and  _147
REMARK   55  A    between atoms: _146  and  _149
REMARK   56  A    between atoms: _149  and  _150
REMARK   57  A    between atoms: _155  and  _157
REMARK   58  A    between atoms: _157  and  _158
REMARK   59  A    between atoms: _157  and  _160
REMARK   60  A    between atoms: _160  and  _161
REMARK   61  A    between atoms: _161  and  _162
REMARK   62  A    between atoms: _165  and  _167
REMARK   63  A    between atoms: _167  and  _168
REMARK   64  A    between atoms: _167  and  _170
REMARK   65  A    between atoms: _170  and  _171
REMARK   66  A    between atoms: _181  and  _183
REMARK   67  A    between atoms: _183  and  _184
REMARK   68  A    between atoms: _183  and  _186
REMARK   69  A    between atoms: _186  and  _187
REMARK   70  A    between atoms: _189  and  _191
REMARK   71  A    between atoms: _191  and  _192
REMARK   72  A    between atoms: _191  and  _194
REMARK   73  A    between atoms: _194  and  _195
REMARK   74  A    between atoms: _200  and  _201
REMARK   75  A    between atoms: _203  and  _205
REMARK   76  A    between atoms: _205  and  _206
REMARK   77  A    between atoms: _205  and  _208
REMARK   78  A    between atoms: _208  and  _209
REMARK   79  A    between atoms: _211  and  _213
REMARK   80  A    between atoms: _213  and  _214
REMARK   81  A    between atoms: _213  and  _216
REMARK   82  A    between atoms: _216  and  _217
REMARK   83  A    between atoms: _222  and  _223
REMARK   84  A    between atoms: _225  and  _227
REMARK   85  A    between atoms: _227  and  _228
REMARK   86  A    between atoms: _230  and  _232
REMARK   87  A    between atoms: _232  and  _233
REMARK   88  A    between atoms: _235  and  _237
REMARK   89  A    between atoms: _237  and  _238
REMARK   90  A    between atoms: _237  and  _240
REMARK   91  A    between atoms: _240  and  _241
REMARK   92  A    between atoms: _246  and  _247
REMARK   93  A    between atoms: _249  and  _251
REMARK   94  A    between atoms: _251  and  _252
REMARK   95  A    between atoms: _251  and  _254
REMARK   96  A    between atoms: _254  and  _255
REMARK   97  A    between atoms: _258  and  _260
REMARK   98  A    between atoms: _260  and  _261
REMARK   99  A    between atoms: _264  and  _266
REMARK  100  A    between atoms: _266  and  _267
REMARK  101  A    between atoms: _269  and  _271
REMARK  102  A    between atoms: _271  and  _272
REMARK  103  A    between atoms: _271  and  _274
REMARK  104  A    between atoms: _274  and  _275
REMARK  105  A    between atoms: _278  and  _280
REMARK  106  A    between atoms: _280  and  _281
REMARK  107  A    between atoms: _280  and  _283
REMARK  108  A    between atoms: _283  and  _284
REMARK  109  A    between atoms: _287  and  _289
REMARK  110  A    between atoms: _289  and  _290
REMARK  111  A    between atoms: _289  and  _292
REMARK  112  A    between atoms: _292  and  _293
REMARK  113  A    between atoms: _296  and  _298
REMARK  114  A    between atoms: _298  and  _299
REMARK  115  A    between atoms: _298  and  _301
REMARK  116  A    between atoms: _304  and  _306
REMARK  117  A    between atoms: _306  and  _307
REMARK  118  A    between atoms: _306  and  _309
REMARK  119  A    between atoms: _309  and  _310
REMARK  120  A    between atoms: _313  and  _315
REMARK  121  A    between atoms: _315  and  _316
REMARK  122  A    between atoms: _315  and  _318
REMARK  123  A    between atoms: _318  and  _319
REMARK  124  A    between atoms: _324  and  _325
REMARK  125  A    between atoms: _327  and  _329
REMARK  126  A    between atoms: _329  and  _330
REMARK  127  A    between atoms: _329  and  _332
REMARK  128  A    between atoms: _332  and  _333
REMARK  129  A    between atoms: _333  and  _334
REMARK  130  A    between atoms: _336  and  _338
REMARK  131  A    between atoms: _338  and  _339
REMARK  132  A    between atoms: _338  and  _341
REMARK  133  A    between atoms: _341  and  _342
REMARK  134  A    between atoms: _347  and  _349
REMARK  135  A    between atoms: _349  and  _350
REMARK  136  A    between atoms: _349  and  _352
REMARK  137  A    between atoms: _352  and  _353
REMARK  138  A    between atoms: _358  and  _359
REMARK  139  A    between atoms: _361  and  _363
REMARK  140  A    between atoms: _363  and  _364
REMARK  141  A    between atoms: _363  and  _366
REMARK  142  A    between atoms: _366  and  _367
REMARK  143  A    between atoms: _372  and  _373
REMARK  144  A    between atoms: _375  and  _377
REMARK  145  A    between atoms: _377  and  _378
REMARK  146  A    between atoms: _377  and  _380
REMARK  147  A    between atoms: _380  and  _381
REMARK  148  A    between atoms: _384  and  _386
REMARK  149  A    between atoms: _386  and  _387
REMARK  150  A    between atoms: _386  and  _389
REMARK  151  A    between atoms: _389  and  _390
REMARK  152  A    between atoms: _395  and  _397
REMARK  153  A    between atoms: _397  and  _398
REMARK  154  A    between atoms: _397  and  _400
REMARK  155  A    between atoms: _400  and  _401
REMARK  156  A    between atoms: _401  and  _402
REMARK  157  A    between atoms: _407  and  _409
REMARK  158  A    between atoms: _409  and  _410
REMARK  159  A    between atoms: _409  and  _412
REMARK  160  A    between atoms: _412  and  _413
REMARK  161  A    between atoms: _416  and  _418
REMARK  162  A    between atoms: _418  and  _419
REMARK  163  A    between atoms: _421  and  _423
REMARK  164  A    between atoms: _423  and  _424
REMARK  165  A    between atoms: _423  and  _426
REMARK  166  A    between atoms: _430  and  _431
REMARK  167  A    between atoms: _436  and  _438
REMARK  168  A    between atoms: _438  and  _439
REMARK  169  A    between atoms: _442  and  _444
REMARK  170  A    between atoms: _444  and  _445
REMARK  171  A    between atoms: _444  and  _447
REMARK  172  A    between atoms: _447  and  _448
REMARK  173  A    between atoms: _454  and  _456
REMARK  174  A    between atoms: _456  and  _457
REMARK  175  A    between atoms: _456  and  _459
REMARK  176  A    between atoms: _459  and  _460
REMARK  177  A    between atoms: _463  and  _465
REMARK  178  A    between atoms: _465  and  _466
REMARK  179  A    between atoms: _465  and  _468
REMARK  180  A    between atoms: _468  and  _469
REMARK  181  A    between atoms: _469  and  _470
REMARK  182  A    between atoms: _473  and  _475
REMARK  183  A    between atoms: _475  and  _476
REMARK  184  A    between atoms: _475  and  _478
REMARK  185  A    between atoms: _478  and  _479
REMARK  186  A    between atoms: _484  and  _486
REMARK  187  A    between atoms: _486  and  _487
REMARK  188  A    between atoms: _489  and  _491
REMARK  189  A    between atoms: _491  and  _492
REMARK  190  A    between atoms: _491  and  _494
REMARK  191  A    between atoms: _494  and  _495
REMARK  192  A    between atoms: _495  and  _496
REMARK  193  A    between atoms: _498  and  _500
REMARK  194  A    between atoms: _500  and  _501
REMARK  195  A    between atoms: _503  and  _505
REMARK  196  A    between atoms: _505  and  _506
REMARK  197  A    between atoms: _505  and  _508
REMARK  198  A    between atoms: _508  and  _509
REMARK  199  A    between atoms: _519  and  _521
REMARK  200  A    between atoms: _521  and  _522
REMARK  201  A    between atoms: _525  and  _527
REMARK  202  A    between atoms: _527  and  _528
REMARK  203  A    between atoms: _527  and  _530
REMARK  204  A    between atoms: _530  and  _531
REMARK  205  A    between atoms: _534  and  _536
REMARK  206  A    between atoms: _536  and  _537
REMARK  207  A    between atoms: _536  and  _539
REMARK  208  A    between atoms: _539  and  _540
REMARK  209  A    between atoms: _545  and  _547
REMARK  210  A    between atoms: _547  and  _548
REMARK  211  A    between atoms: _547  and  _550
REMARK  212  A    between atoms: _550  and  _551
REMARK  213  A    between atoms: _557  and  _559
REMARK  214  A    between atoms: _559  and  _560
REMARK  215  A    between atoms: _559  and  _562
REMARK  216  A    between atoms: _562  and  _563
REMARK  217  A    between atoms: _563  and  _564
REMARK  218  A    between atoms: _567  and  _569
REMARK  219  A    between atoms: _569  and  _570
REMARK  220  A    between atoms: _569  and  _572
REMARK  221  A    between atoms: _572  and  _573
REMARK  222  A    between atoms: _583  and  _585
REMARK  223  A    between atoms: _585  and  _586
REMARK  224  A    between atoms: _585  and  _588
REMARK  225  A    between atoms: _588  and  _589
REMARK  226  A    between atoms: _592  and  _594
REMARK  227  A    between atoms: _594  and  _595
REMARK  228  A    between atoms: _594  and  _597
REMARK  229  A    between atoms: _597  and  _598
REMARK  230  A    between atoms: _600  and  _602
REMARK  231  A    between atoms: _602  and  _603
REMARK  232  A    between atoms: _605  and  _607
REMARK  233  A    between atoms: _607  and  _608
REMARK  234  A    between atoms: _607  and  _610
REMARK  235  A    between atoms: _610  and  _611
REMARK  236  A    between atoms: _614  and  _616
REMARK  237  A    between atoms: _616  and  _617
REMARK  238  A    between atoms: _616  and  _619
REMARK  239  A    between atoms: _619  and  _620
REMARK  240  A    between atoms: _620  and  _621
REMARK  241  A    between atoms: _626  and  _628
REMARK  242  A    between atoms: _628  and  _629
REMARK  243  A    between atoms: _628  and  _631
REMARK  244  A    between atoms: _631  and  _632
REMARK                            x       y       z     vdW  Elec       q    Type
REMARK                         _______ _______ _______ _____ _____    ______ ____
ROOT
ATOM      1  C   ASN A   1       8.632  34.279  22.048  0.00  0.00    +0.239 C 
ATOM      2  O   ASN A   1       8.305  35.407  21.682  0.00  0.00    -0.274 OA
ATOM      3  N   GLU A   2       8.488  33.194  21.291  0.00  0.00    -0.298 N 
ATOM      4  H   GLU A   2       8.957  32.314  21.586  0.00  0.00    +0.150 HD
ENDROOT
BRANCH   1   5
ATOM      5  CA  ASN A   1       9.230  34.063  23.438  0.00  0.00    +0.154 C 
BRANCH   5   6
ATOM      6  N   ASN A   1      10.444  34.838  23.647  0.00  0.00    -0.238 NA
ATOM      7  H   ASN A   1      10.356  35.817  23.988  0.00  0.00    +0.142 HD
ENDBRANCH   5   6
BRANCH   5   8
ATOM      8  CB  ASN A   1       8.188  34.431  24.497  0.00  0.00    +0.111 C 
BRANCH   8   9
ATOM      9  CG  ASN A   1       6.895  33.667  24.327  0.00  0.00    +0.221 C 
ATOM     10  OD1 ASN A   1       6.823  32.481  24.650  0.00  0.00    -0.275 OA
ATOM     11  ND2 ASN A   1       5.859  34.346  23.829  0.00  0.00    -0.329 N 
ATOM     12 HD21 ASN A   1       4.942  33.874  23.699  0.00  0.00    +0.145 HD
ATOM     13 HD22 ASN A   1       5.969  35.347  23.571  0.00  0.00    +0.145 HD
ENDBRANCH   8   9
ENDBRANCH   5   8
ENDBRANCH   1   5
BRANCH   3  14
ATOM     14  CA  GLU A   2       7.694  33.191  20.057  0.00  0.00    +0.137 C 
BRANCH  14  15
ATOM     15  C   GLU A   2       7.972  34.359  19.115  0.00  0.00    +0.227 C 
ATOM     16  O   GLU A   2       7.113  35.227  18.941  0.00  0.00    -0.286 OA
ENDBRANCH  14  15
BRANCH  14  17
ATOM     17  CB  GLU A   2       6.206  33.196  20.393  0.00  0.00    +0.039 C 
BRANCH  17  18
ATOM     18  CG  GLU A   2       5.732  32.018  21.240  0.00  0.00    +0.116 C 
BRANCH  18  19
ATOM     19  CD  GLU A   2       4.212  31.999  21.384  0.00  0.00    +0.365 C 
ATOM     20  OE2 GLU A   2       3.672  31.007  21.920  0.00  0.00    -0.246 OA
ATOM     21  OE1 GLU A   2       3.565  32.975  20.953  0.00  0.00    -0.246 OA
ENDBRANCH  18  19
ENDBRANCH  17  18
ENDBRANCH  14  17
ENDBRANCH   3  14
TORSDOF 9
REMARK  Name = ../refined-set-2016/3wq6/3wq6_pocket.pdb
REMARK  244 active torsions:
REMARK  status: ('A' for Active; 'I' for Inactive)
REMARK    1  A    between atoms: _1  and  _3
REMARK    2  A    between atoms: _3  and  _4
REMARK    3  A    between atoms: _7  and  _9
REMARK    4  A    between atoms: _9  and  _10
REMARK    5  A    between atoms: _9  and  _12
REMARK    6  A    between atoms: _12  and  _13
REMARK    7  A    between atoms: _15  and  _17
REMARK    8  A    between atoms: _17  and  _18
REMARK    9  A    between atoms: _17  and  _20
REMARK   10  A    between atoms: _20  and  _21
REMARK   11  A    between atoms: _23  and  _25
REMARK   12  A    between atoms: _25  and  _26
REMARK   13  A    between atoms: _29  and  _31
REMARK   14  A    between atoms: _31  and  _32
REMARK   15  A    between atoms: _31  and  _34
REMARK   16  A    between atoms: _34  and  _35
REMARK   17  A    between atoms: _40  and  _41
REMARK   18  A    between atoms: _43  and  _45
REMARK   19  A    between atoms: _45  and  _46
REMARK   20  A    between atoms: _45  and  _48
REMARK   21  A    between atoms: _48  and  _49
REMARK   22  A    between atoms: _49  and  _50
REMARK   23  A    between atoms: _55  and  _57
REMARK   24  A    between atoms: _57  and  _58
REMARK   25  A    between atoms: _57  and  _60
REMARK   26  A    between atoms: _60  and  _61
REMARK   27  A    between atoms: _67  and  _69
REMARK   28  A    between atoms: _69  and  _70
REMARK   29  A    between atoms: _69  and  _72
REMARK   30  A    between atoms: _72  and  _73
REMARK   31  A    between atoms: _83  and  _85
REMARK   32  A    between atoms: _85  and  _86
REMARK   33  A    between atoms: _85  and  _88
REMARK   34  A    between atoms: _88  and  _89
REMARK   35  A    between atoms: _91  and  _93
REMARK   36  A    between atoms: _93  and  _94
REMARK   37  A    between atoms: _93  and  _96
REMARK   38  A    between atoms: _96  and  _97
REMARK   39  A    between atoms: _97  and  _98
REMARK   40  A    between atoms: _98  and  _99
REMARK   41  A    between atoms: _108  and  _110
REMARK   42  A    between atoms: _110  and  _111
REMARK   43  A    between atoms: _110  and  _113
REMARK   44  A    between atoms: _113  and  _114
REMARK   45  A    between atoms: _117  and  _119
REMARK   46  A    between atoms: _119  and  _120
REMARK   47  A    between atoms: _119  and  _122
REMARK   48  A    between atoms: _122  and  _123
REMARK   49  A    between atoms: _128  and  _130
REMARK   50  A    between atoms: _130  and  _131
REMARK   51  A    between atoms: _130  and  _133
REMARK   52  A    between atoms: _133  and  _134
REMARK   53  A    between atoms: _144  and  _146
REMARK   54  A    between atoms: _146  and  _147
REMARK   55  A    between atoms: _146  and  _149
REMARK   56  A    between atoms: _149  and  _150
REMARK   57  A    between atoms: _155  and  _157
REMARK   58  A    between atoms: _157  and  _158
REMARK   59  A    between atoms: _157  and  _160
REMARK   60  A    between atoms: _160  and  _161
REMARK   61  A    between atoms: _161  and  _162
REMARK   62  A    between atoms: _165  and  _167
REMARK   63  A    between atoms: _167  and  _168
REMARK   64  A    between atoms: _167  and  _170
REMARK   65  A    between atoms: _170  and  _171
REMARK   66  A    between atoms: _181  and  _183
REMARK   67  A    between atoms: _183  and  _184
REMARK   68  A    between atoms: _183  and  _186
REMARK   69  A    between atoms: _186  and  _187
REMARK   70  A    between atoms: _189  and  _191
REMARK   71  A    between atoms: _191  and  _192
REMARK   72  A    between atoms: _191  and  _194
REMARK   73  A    between atoms: _194  and  _195
REMARK   74  A    between atoms: _200  and  _201
REMARK   75  A    between atoms: _203  and  _205
REMARK   76  A    between atoms: _205  and  _206
REMARK   77  A    between atoms: _205  and  _208
REMARK   78  A    between atoms: _208  and  _209
REMARK   79  A    between atoms: _211  and  _213
REMARK   80  A    between atoms: _213  and  _214
REMARK   81  A    between atoms: _213  and  _216
REMARK   82  A    between atoms: _216  and  _217
REMARK   83  A    between atoms: _222  and  _223
REMARK   84  A    between atoms: _225  and  _227
REMARK   85  A    between atoms: _227  and  _228
REMARK   86  A    between atoms: _230  and  _232
REMARK   87  A    between atoms: _232  and  _233
REMARK   88  A    between atoms: _235  and  _237
REMARK   89  A    between atoms: _237  and  _238
REMARK   90  A    between atoms: _237  and  _240
REMARK   91  A    between atoms: _240  and  _241
REMARK   92  A    between atoms: _246  and  _247
REMARK   93  A    between atoms: _249  and  _251
REMARK   94  A    between atoms: _251  and  _252
REMARK   95  A    between atoms: _251  and  _254
REMARK   96  A    between atoms: _254  and  _255
REMARK   97  A    between atoms: _258  and  _260
REMARK   98  A    between atoms: _260  and  _261
REMARK   99  A    between atoms: _264  and  _266
REMARK  100  A    between atoms: _266  and  _267
REMARK  101  A    between atoms: _269  and  _271
REMARK  102  A    between atoms: _271  and  _272
REMARK  103  A    between atoms: _271  and  _274
REMARK  104  A    between atoms: _274  and  _275
REMARK  105  A    between atoms: _278  and  _280
REMARK  106  A    between atoms: _280  and  _281
REMARK  107  A    between atoms: _280  and  _283
REMARK  108  A    between atoms: _283  and  _284
REMARK  109  A    between atoms: _287  and  _289
REMARK  110  A    between atoms: _289  and  _290
REMARK  111  A    between atoms: _289  and  _292
REMARK  112  A    between atoms: _292  and  _293
REMARK  113  A    between atoms: _296  and  _298
REMARK  114  A    between atoms: _298  and  _299
REMARK  115  A    between atoms: _298  and  _301
REMARK  116  A    between atoms: _304  and  _306
REMARK  117  A    between atoms: _306  and  _307
REMARK  118  A    between atoms: _306  and  _309
REMARK  119  A    between atoms: _309  and  _310
REMARK  120  A    between atoms: _313  and  _315
REMARK  121  A    between atoms: _315  and  _316
REMARK  122  A    between atoms: _315  and  _318
REMARK  123  A    between atoms: _318  and  _319
REMARK  124  A    between atoms: _324  and  _325
REMARK  125  A    between atoms: _327  and  _329
REMARK  126  A    between atoms: _329  and  _330
REMARK  127  A    between atoms: _329  and  _332
REMARK  128  A    between atoms: _332  and  _333
REMARK  129  A    between atoms: _333  and  _334
REMARK  130  A    between atoms: _336  and  _338
REMARK  131  A    between atoms: _338  and  _339
REMARK  132  A    between atoms: _338  and  _341
REMARK  133  A    between atoms: _341  and  _342
REMARK  134  A    between atoms: _347  and  _349
REMARK  135  A    between atoms: _349  and  _350
REMARK  136  A    between atoms: _349  and  _352
REMARK  137  A    between atoms: _352  and  _353
REMARK  138  A    between atoms: _358  and  _359
REMARK  139  A    between atoms: _361  and  _363
REMARK  140  A    between atoms: _363  and  _364
REMARK  141  A    between atoms: _363  and  _366
REMARK  142  A    between atoms: _366  and  _367
REMARK  143  A    between atoms: _372  and  _373
REMARK  144  A    between atoms: _375  and  _377
REMARK  145  A    between atoms: _377  and  _378
REMARK  146  A    between atoms: _377  and  _380
REMARK  147  A    between atoms: _380  and  _381
REMARK  148  A    between atoms: _384  and  _386
REMARK  149  A    between atoms: _386  and  _387
REMARK  150  A    between atoms: _386  and  _389
REMARK  151  A    between atoms: _389  and  _390
REMARK  152  A    between atoms: _395  and  _397
REMARK  153  A    between atoms: _397  and  _398
REMARK  154  A    between atoms: _397  and  _400
REMARK  155  A    between atoms: _400  and  _401
REMARK  156  A    between atoms: _401  and  _402
REMARK  157  A    between atoms: _407  and  _409
REMARK  158  A    between atoms: _409  and  _410
REMARK  159  A    between atoms: _409  and  _412
REMARK  160  A    between atoms: _412  and  _413
REMARK  161  A    between atoms: _416  and  _418
REMARK  162  A    between atoms: _418  and  _419
REMARK  163  A    between atoms: _421  and  _423
REMARK  164  A    between atoms: _423  and  _424
REMARK  165  A    between atoms: _423  and  _426
REMARK  166  A    between atoms: _430  and  _431
REMARK  167  A    between atoms: _436  and  _438
REMARK  168  A    between atoms: _438  and  _439
REMARK  169  A    between atoms: _442  and  _444
REMARK  170  A    between atoms: _444  and  _445
REMARK  171  A    between atoms: _444  and  _447
REMARK  172  A    between atoms: _447  and  _448
REMARK  173  A    between atoms: _454  and  _456
REMARK  174  A    between atoms: _456  and  _457
REMARK  175  A    between atoms: _456  and  _459
REMARK  176  A    between atoms: _459  and  _460
REMARK  177  A    between atoms: _463  and  _465
REMARK  178  A    between atoms: _465  and  _466
REMARK  179  A    between atoms: _465  and  _468
REMARK  180  A    between atoms: _468  and  _469
REMARK  181  A    between atoms: _469  and  _470
REMARK  182  A    between atoms: _473  and  _475
REMARK  183  A    between atoms: _475  and  _476
REMARK  184  A    between atoms: _475  and  _478
REMARK  185  A    between atoms: _478  and  _479
REMARK  186  A    between atoms: _484  and  _486
REMARK  187  A    between atoms: _486  and  _487
REMARK  188  A    between atoms: _489  and  _491
REMARK  189  A    between atoms: _491  and  _492
REMARK  190  A    between atoms: _491  and  _494
REMARK  191  A    between atoms: _494  and  _495
REMARK  192  A    between atoms: _495  and  _496
REMARK  193  A    between atoms: _498  and  _500
REMARK  194  A    between atoms: _500  and  _501
REMARK  195  A    between atoms: _503  and  _505
REMARK  196  A    between atoms: _505  and  _506
REMARK  197  A    between atoms: _505  and  _508
REMARK  198  A    between atoms: _508  and  _509
REMARK  199  A    between atoms: _519  and  _521
REMARK  200  A    between atoms: _521  and  _522
REMARK  201  A    between atoms: _525  and  _527
REMARK  202  A    between atoms: _527  and  _528
REMARK  203  A    between atoms: _527  and  _530
REMARK  204  A    between atoms: _530  and  _531
REMARK  205  A    between atoms: _534  and  _536
REMARK  206  A    between atoms: _536  and  _537
REMARK  207  A    between atoms: _536  and  _539
REMARK  208  A    between atoms: _539  and  _540
REMARK  209  A    between atoms: _545  and  _547
REMARK  210  A    between atoms: _547  and  _548
REMARK  211  A    between atoms: _547  and  _550
REMARK  212  A    between atoms: _550  and  _551
REMARK  213  A    between atoms: _557  and  _559
REMARK  214  A    between atoms: _559  and  _560
REMARK  215  A    between atoms: _559  and  _562
REMARK  216  A    between atoms: _562  and  _563
REMARK  217  A    between atoms: _563  and  _564
REMARK  218  A    between atoms: _567  and  _569
REMARK  219  A    between atoms: _569  and  _570
REMARK  220  A    between atoms: _569  and  _572
REMARK  221  A    between atoms: _572  and  _573
REMARK  222  A    between atoms: _583  and  _585
REMARK  223  A    between atoms: _585  and  _586
REMARK  224  A    between atoms: _585  and  _588
REMARK  225  A    between atoms: _588  and  _589
REMARK  226  A    between atoms: _592  and  _594
REMARK  227  A    between atoms: _594  and  _595
REMARK  228  A    between atoms: _594  and  _597
REMARK  229  A    between atoms: _597  and  _598
REMARK  230  A    between atoms: _600  and  _602
REMARK  231  A    between atoms: _602  and  _603
REMARK  232  A    between atoms: _605  and  _607
REMARK  233  A    between atoms: _607  and  _608
REMARK  234  A    between atoms: _607  and  _610
REMARK  235  A    between atoms: _610  and  _611
REMARK  236  A    between atoms: _614  and  _616
REMARK  237  A    between atoms: _616  and  _617
REMARK  238  A    between atoms: _616  and  _619
REMARK  239  A    between atoms: _619  and  _620
REMARK  240  A    between atoms: _620  and  _621
REMARK  241  A    between atoms: _626  and  _628
REMARK  242  A    between atoms: _628  and  _629
REMARK  243  A    between atoms: _628  and  _631
REMARK  244  A    between atoms: _631  and  _632
REMARK                            x       y       z     vdW  Elec       q    Type
REMARK                         _______ _______ _______ _____ _____    ______ ____
ROOT
ATOM      1  C   TYR A   5       2.273  38.980  12.995  0.00  0.00    +0.241 C 
ATOM      2  N   GLY A   6       2.176  38.943  14.319  0.00  0.00    -0.295 N 
ATOM      3  H   GLY A   6       2.830  38.347  14.866  0.00  0.00    +0.150 HD
ATOM      4  O   TYR A   5       1.578  39.722  12.300  0.00  0.00    -0.273 OA
ENDROOT
BRANCH   2   5
ATOM      5  CA  GLY A   6       1.169  39.724  15.012  0.00  0.00    +0.176 C 
BRANCH   5   6
ATOM      6  C   GLY A   6       1.455  41.212  14.976  0.00  0.00    +0.243 C 
ATOM      7  N   GLY A   7       2.726  41.574  15.109  0.00  0.00    -0.295 N 
ATOM      8  H   GLY A   7       3.462  40.841  15.156  0.00  0.00    +0.150 HD
ATOM      9  O   GLY A   6       0.543  42.022  14.829  0.00  0.00    -0.273 OA
BRANCH   7  10
ATOM     10  CA  GLY A   7       3.108  42.970  15.190  0.00  0.00    +0.176 C 
BRANCH  10  11
ATOM     11  C   GLY A   7       3.244  43.665  13.845  0.00  0.00    +0.243 C 
ATOM     12  O   GLY A   7       3.104  44.889  13.764  0.00  0.00    -0.273 OA
ATOM     13  N   TYR A   8       3.499  42.893  12.789  0.00  0.00    -0.297 N 
ATOM     14  H   TYR A   8       3.420  41.860  12.881  0.00  0.00    +0.150 HD
BRANCH  13  15
ATOM     15  CA  TYR A   8       3.889  43.473  11.502  0.00  0.00    +0.153 C 
BRANCH  15  16
ATOM     16  C   TYR A   8       3.163  42.935  10.272  0.00  0.00    +0.241 C 
ATOM     17  N   ASP A   9       2.426  41.837  10.405  0.00  0.00    -0.297 N 
ATOM     18  H   ASP A   9       2.429  41.311  11.302  0.00  0.00    +0.150 HD
ATOM     19  O   TYR A   8       3.287  43.506   9.193  0.00  0.00    -0.273 OA
BRANCH  17  20
ATOM     20  CA  ASP A   9       1.612  41.373   9.284  0.00  0.00    +0.160 C 
BRANCH  20  21
ATOM     21  C   ASP A   9       0.163  41.733   9.553  0.00  0.00    +0.241 C 
ATOM     22  N   ALA A  10      -0.379  41.213  10.649  0.00  0.00    -0.297 N 
ATOM     23  H   ALA A  10       0.217  40.671  11.307  0.00  0.00    +0.150 HD
ATOM     24  O   ASP A   9      -0.453  42.463   8.783  0.00  0.00    -0.273 OA
BRANCH  22  25
ATOM     25  CA  ALA A  10      -1.799  41.390  10.944  0.00  0.00    +0.149 C 
ATOM     26  CB  ALA A  10      -2.339  40.145  11.639  0.00  0.00    +0.031 C 
BRANCH  25  27
ATOM     27  C   ALA A  10      -2.086  42.631  11.787  0.00  0.00    +0.241 C 
ATOM     28  N   GLY A  11      -1.046  43.203  12.392  0.00  0.00    -0.295 N 
ATOM     29  H   GLY A  11      -0.099  42.793  12.263  0.00  0.00    +0.150 HD
ATOM     30  O   ALA A  10      -3.234  43.064  11.882  0.00  0.00    -0.273 OA
BRANCH  28  31
ATOM     31  CA  GLY A  11      -1.197  44.383  13.227  0.00  0.00    +0.176 C 
BRANCH  31  32
ATOM     32  C   GLY A  11      -2.087  44.168  14.442  0.00  0.00    +0.243 C 
ATOM     33  O   GLY A  11      -2.704  45.109  14.941  0.00  0.00    -0.273 OA
ATOM     34  N   LEU A  12      -2.139  42.926  14.917  0.00  0.00    -0.297 N 
ATOM     35  H   LEU A  12      -1.541  42.203  14.468  0.00  0.00    +0.150 HD
BRANCH  34  36
ATOM     36  CA  LEU A  12      -2.991  42.521  16.037  0.00  0.00    +0.149 C 
BRANCH  36  37
ATOM     37  C   LEU A  12      -2.297  42.692  17.385  0.00  0.00    +0.241 C 
ATOM     38  O   LEU A  12      -2.951  42.735  18.431  0.00  0.00    -0.273 OA
ATOM     39  N   LEU A  13      -0.970  42.772  17.339  0.00  0.00    -0.298 N 
ATOM     40  H   LEU A  13      -0.506  42.727  16.409  0.00  0.00    +0.150 HD
BRANCH  39  41
ATOM     41  CA  LEU A  13      -0.132  42.920  18.522  0.00  0.00    +0.137 C 
BRANCH  41  42
ATOM     42  C   LEU A  13       0.725  44.170  18.394  0.00  0.00    +0.227 C 
ATOM     43  O   LEU A  13       0.936  44.655  17.285  0.00  0.00    -0.286 OA
ENDBRANCH  41  42
BRANCH  41  44
ATOM     44  CB  LEU A  13       0.773  41.702  18.701  0.00  0.00    +0.028 C 
BRANCH  44  45
ATOM     45  CG  LEU A  13       0.177  40.298  18.799  0.00  0.00    +0.002 C 
ATOM     46  CD2 LEU A  13      -0.803  40.196  19.949  0.00  0.00    +0.000 C 
ATOM     47  CD1 LEU A  13       1.320  39.302  18.980  0.00  0.00    +0.000 C 
ENDBRANCH  44  45
ENDBRANCH  41  44
ENDBRANCH  39  41
ENDBRANCH  36  37
BRANCH  36  48
ATOM     48  CB  LEU A  12      -3.405  41.056  15.875  0.00  0.00    +0.029 C 
BRANCH  48  49
ATOM     49  CG  LEU A  12      -4.396  40.704  14.768  0.00  0.00    +0.002 C 
ATOM     50  CD2 LEU A  12      -5.783  41.210  15.139  0.00  0.00    +0.000 C 
ATOM     51  CD1 LEU A  12      -4.413  39.204  14.552  0.00  0.00    +0.000 C 
ENDBRANCH  48  49
ENDBRANCH  36  48
ENDBRANCH  34  36
ENDBRANCH  31  32
ENDBRANCH  28  31
ENDBRANCH  25  27
ENDBRANCH  22  25
ENDBRANCH  20  21
BRANCH  20  52
ATOM     52  CB  ASP A   9       1.763  39.859   9.061  0.00  0.00    +0.143 C 
BRANCH  52  53
ATOM     53  CG  ASP A   9       0.870  39.324   7.927  0.00  0.00    +0.367 C 
ATOM     54  OD2 ASP A   9      -0.115  39.982   7.528  0.00  0.00    -0.246 OA
ATOM     55  OD1 ASP A   9       1.153  38.221   7.428  0.00  0.00    -0.246 OA
ENDBRANCH  52  53
ENDBRANCH  20  52
ENDBRANCH  17  20
ENDBRANCH  15  16
BRANCH  15  56
ATOM     56  CB  TYR A   8       5.395  43.295  11.300  0.00  0.00    +0.055 C 
BRANCH  56  57
ATOM     57  CG  TYR A   8       6.214  44.048  12.317  0.00  0.00    -0.020 A 
ATOM     58  CD2 TYR A   8       6.551  43.467  13.529  0.00  0.00    -0.001 A 
ATOM     59  CE2 TYR A   8       7.284  44.155  14.471  0.00  0.00    +0.036 A 
ATOM     60  CZ  TYR A   8       7.696  45.449  14.201  0.00  0.00    +0.134 A 
ATOM     61  CE1 TYR A   8       7.370  46.048  13.007  0.00  0.00    +0.036 A 
ATOM     62  CD1 TYR A   8       6.627  45.354  12.076  0.00  0.00    -0.001 A 
BRANCH  60  63
ATOM     63  OH  TYR A   8       8.441  46.134  15.129  0.00  0.00    -0.506 OA
ATOM     64  HH  TYR A   8       7.959  46.956  15.396  0.00  0.00    +0.292 HD
ENDBRANCH  60  63
ENDBRANCH  56  57
ENDBRANCH  15  56
ENDBRANCH  13  15
ENDBRANCH  10  11
ENDBRANCH   7  10
ENDBRANCH   5   6
ENDBRANCH   2   5
BRANCH   1  65
ATOM     65  CA  TYR A   5       3.298  38.042  12.361  0.00  0.00    +0.153 C 
BRANCH  65  67
ATOM     66  C   SER A   4       5.271  39.297  12.996  0.00  0.00    +0.243 C 
ATOM     67  N   TYR A   5       4.598  38.151  13.011  0.00  0.00    -0.297 N 
ATOM     68  H   TYR A   5       5.004  37.323  13.492  0.00  0.00    +0.150 HD
ATOM     69  O   SER A   4       4.836  40.321  12.457  0.00  0.00    -0.273 OA
BRANCH  66  70
ATOM     70  CA  SER A   4       6.633  39.297  13.681  0.00  0.00    +0.178 C 
BRANCH  70  73
ATOM     71  C   TYR A   3       6.032  39.663  15.998  0.00  0.00    +0.241 C 
ATOM     72  O   TYR A   3       5.533  40.760  15.731  0.00  0.00    -0.273 OA
ATOM     73  N   SER A   4       6.555  38.866  15.072  0.00  0.00    -0.295 N 
ATOM     74  H   SER A   4       6.912  37.927  15.342  0.00  0.00    +0.150 HD
BRANCH  71  75
ATOM     75  CA  TYR A   3       6.054  39.138  17.431  0.00  0.00    +0.153 C 
BRANCH  75  77
ATOM     76  C   SER A   2       4.426  37.390  17.029  0.00  0.00    +0.243 C 
ATOM     77  N   TYR A   3       5.630  37.743  17.470  0.00  0.00    -0.297 N 
ATOM     78  H   TYR A   3       6.274  37.018  17.846  0.00  0.00    +0.150 HD
ATOM     79  O   SER A   2       3.621  38.200  16.578  0.00  0.00    -0.273 OA
BRANCH  76  80
ATOM     80  CA  SER A   2       4.076  35.911  17.112  0.00  0.00    +0.178 C 
BRANCH  80  82
ATOM     81  C   TRP A   1       5.622  35.123  15.404  0.00  0.00    +0.239 C 
ATOM     82  N   SER A   2       5.169  35.064  16.651  0.00  0.00    -0.295 N 
ATOM     83  H   SER A   2       5.606  34.395  17.317  0.00  0.00    +0.150 HD
ATOM     84  O   TRP A   1       5.145  35.868  14.548  0.00  0.00    -0.274 OA
BRANCH  81  85
ATOM     85  CA  TRP A   1       6.772  34.185  15.068  0.00  0.00    +0.149 C 
BRANCH  85  86
ATOM     86  N   TRP A   1       7.834  34.265  16.075  0.00  0.00    -0.238 NA
ATOM     87  H   TRP A   1       8.143  33.401  16.564  0.00  0.00    +0.142 HD
ENDBRANCH  85  86
BRANCH  85  88
ATOM     88  CB  TRP A   1       6.218  32.762  14.922  0.00  0.00    +0.054 C 
BRANCH  88  89
ATOM     89  CG  TRP A   1       5.010  32.738  14.003  0.00  0.00    -0.002 A 
ATOM     90  CD2 TRP A   1       3.625  32.809  14.386  0.00  0.00    +0.013 A 
ATOM     91  CE3 TRP A   1       2.960  32.889  15.615  0.00  0.00    +0.001 A 
ATOM     92  CZ3 TRP A   1       1.565  32.940  15.620  0.00  0.00    +0.000 A 
ATOM     93  CH2 TRP A   1       0.835  32.908  14.420  0.00  0.00    +0.001 A 
ATOM     94  CZ2 TRP A   1       1.464  32.834  13.204  0.00  0.00    +0.017 A 
ATOM     95  CE2 TRP A   1       2.862  32.785  13.199  0.00  0.00    +0.056 A 
ATOM     96  NE1 TRP A   1       3.740  32.706  12.149  0.00  0.00    -0.352 N 
ATOM     97  HE1 TRP A   1       3.477  32.669  11.143  0.00  0.00    +0.166 HD
ATOM     98  CD1 TRP A   1       5.023  32.683  12.640  0.00  0.00    +0.068 A 
ENDBRANCH  88  89
ENDBRANCH  85  88
ENDBRANCH  81  85
ENDBRANCH  80  82
BRANCH  80  99
ATOM     99  CB  SER A   2       3.700  35.547  18.551  0.00  0.00    +0.166 C 
BRANCH  99 100
ATOM    100  OG  SER A   2       3.400  34.167  18.650  0.00  0.00    -0.380 OA
ATOM    101  H   SER A   2       3.159  33.949  19.585  0.00  0.00    +0.211 HD
ENDBRANCH  99 100
ENDBRANCH  80  99
ENDBRANCH  76  80
ENDBRANCH  75  77
BRANCH  75 102
ATOM    102  CB  TYR A   3       7.452  39.295  18.032  0.00  0.00    +0.055 C 
BRANCH 102 103
ATOM    103  CG  TYR A   3       7.805  40.723  18.379  0.00  0.00    -0.020 A 
ATOM    104  CD2 TYR A   3       7.443  41.264  19.603  0.00  0.00    -0.001 A 
ATOM    105  CE2 TYR A   3       7.771  42.570  19.938  0.00  0.00    +0.036 A 
ATOM    106  CZ  TYR A   3       8.468  43.347  19.031  0.00  0.00    +0.134 A 
ATOM    107  CE1 TYR A   3       8.835  42.836  17.803  0.00  0.00    +0.036 A 
ATOM    108  CD1 TYR A   3       8.505  41.528  17.483  0.00  0.00    -0.001 A 
BRANCH 106 109
ATOM    109  OH  TYR A   3       8.795  44.635  19.361  0.00  0.00    -0.506 OA
ATOM    110  HH  TYR A   3       8.383  45.256  18.709  0.00  0.00    +0.292 HD
ENDBRANCH 106 109
ENDBRANCH 102 103
ENDBRANCH  75 102
ENDBRANCH  71  75
ENDBRANCH  70  73
BRANCH  70 111
ATOM    111  CB  SER A   4       7.603  38.413  12.902  0.00  0.00    +0.166 C 
BRANCH 111 112
ATOM    112  OG  SER A   4       7.688  38.850  11.561  0.00  0.00    -0.380 OA
ATOM    113  H   SER A   4       8.319  38.270  11.066  0.00  0.00    +0.211 HD
ENDBRANCH 111 112
ENDBRANCH  70 111
ENDBRANCH  66  70
ENDBRANCH  65  67
BRANCH  65 114
ATOM    114  CB  TYR A   5       2.776  36.602  12.413  0.00  0.00    +0.055 C 
BRANCH 114 115
ATOM    115  CG  TYR A   5       1.283  36.541  12.202  0.00  0.00    -0.020 A 
ATOM    116  CD2 TYR A   5       0.418  36.350  13.273  0.00  0.00    -0.001 A 
ATOM    117  CE2 TYR A   5      -0.956  36.316  13.089  0.00  0.00    +0.036 A 
ATOM    118  CZ  TYR A   5      -1.481  36.472  11.824  0.00  0.00    +0.134 A 
ATOM    119  CE1 TYR A   5      -0.646  36.669  10.741  0.00  0.00    +0.036 A 
ATOM    120  CD1 TYR A   5       0.733  36.707  10.937  0.00  0.00    -0.001 A 
BRANCH 118 121
ATOM    121  OH  TYR A   5      -2.851  36.433  11.651  0.00  0.00    -0.506 OA
ATOM    122  HH  TYR A   5      -3.065  36.560  10.693  0.00  0.00    +0.292 HD
ENDBRANCH 118 121
ENDBRANCH 114 115
ENDBRANCH  65 114
ENDBRANCH   1  65
TORSDOF 47
REMARK  Name = ../refined-set-2016/3wq6/3wq6_pocket.pdb
REMARK  244 active torsions:
REMARK  status: ('A' for Active; 'I' for Inactive)
REMARK    1  A    between atoms: _1  and  _3
REMARK    2  A    between atoms: _3  and  _4
REMARK    3  A    between atoms: _7  and  _9
REMARK    4  A    between atoms: _9  and  _10
REMARK    5  A    between atoms: _9  and  _12
REMARK    6  A    between atoms: _12  and  _13
REMARK    7  A    between atoms: _15  and  _17
REMARK    8  A    between atoms: _17  and  _18
REMARK    9  A    between atoms: _17  and  _20
REMARK   10  A    between atoms: _20  and  _21
REMARK   11  A    between atoms: _23  and  _25
REMARK   12  A    between atoms: _25  and  _26
REMARK   13  A    between atoms: _29  and  _31
REMARK   14  A    between atoms: _31  and  _32
REMARK   15  A    between atoms: _31  and  _34
REMARK   16  A    between atoms: _34  and  _35
REMARK   17  A    between atoms: _40  and  _41
REMARK   18  A    between atoms: _43  and  _45
REMARK   19  A    between atoms: _45  and  _46
REMARK   20  A    between atoms: _45  and  _48
REMARK   21  A    between atoms: _48  and  _49
REMARK   22  A    between atoms: _49  and  _50
REMARK   23  A    between atoms: _55  and  _57
REMARK   24  A    between atoms: _57  and  _58
REMARK   25  A    between atoms: _57  and  _60
REMARK   26  A    between atoms: _60  and  _61
REMARK   27  A    between atoms: _67  and  _69
REMARK   28  A    between atoms: _69  and  _70
REMARK   29  A    between atoms: _69  and  _72
REMARK   30  A    between atoms: _72  and  _73
REMARK   31  A    between atoms: _83  and  _85
REMARK   32  A    between atoms: _85  and  _86
REMARK   33  A    between atoms: _85  and  _88
REMARK   34  A    between atoms: _88  and  _89
REMARK   35  A    between atoms: _91  and  _93
REMARK   36  A    between atoms: _93  and  _94
REMARK   37  A    between atoms: _93  and  _96
REMARK   38  A    between atoms: _96  and  _97
REMARK   39  A    between atoms: _97  and  _98
REMARK   40  A    between atoms: _98  and  _99
REMARK   41  A    between atoms: _108  and  _110
REMARK   42  A    between atoms: _110  and  _111
REMARK   43  A    between atoms: _110  and  _113
REMARK   44  A    between atoms: _113  and  _114
REMARK   45  A    between atoms: _117  and  _119
REMARK   46  A    between atoms: _119  and  _120
REMARK   47  A    between atoms: _119  and  _122
REMARK   48  A    between atoms: _122  and  _123
REMARK   49  A    between atoms: _128  and  _130
REMARK   50  A    between atoms: _130  and  _131
REMARK   51  A    between atoms: _130  and  _133
REMARK   52  A    between atoms: _133  and  _134
REMARK   53  A    between atoms: _144  and  _146
REMARK   54  A    between atoms: _146  and  _147
REMARK   55  A    between atoms: _146  and  _149
REMARK   56  A    between atoms: _149  and  _150
REMARK   57  A    between atoms: _155  and  _157
REMARK   58  A    between atoms: _157  and  _158
REMARK   59  A    between atoms: _157  and  _160
REMARK   60  A    between atoms: _160  and  _161
REMARK   61  A    between atoms: _161  and  _162
REMARK   62  A    between atoms: _165  and  _167
REMARK   63  A    between atoms: _167  and  _168
REMARK   64  A    between atoms: _167  and  _170
REMARK   65  A    between atoms: _170  and  _171
REMARK   66  A    between atoms: _181  and  _183
REMARK   67  A    between atoms: _183  and  _184
REMARK   68  A    between atoms: _183  and  _186
REMARK   69  A    between atoms: _186  and  _187
REMARK   70  A    between atoms: _189  and  _191
REMARK   71  A    between atoms: _191  and  _192
REMARK   72  A    between atoms: _191  and  _194
REMARK   73  A    between atoms: _194  and  _195
REMARK   74  A    between atoms: _200  and  _201
REMARK   75  A    between atoms: _203  and  _205
REMARK   76  A    between atoms: _205  and  _206
REMARK   77  A    between atoms: _205  and  _208
REMARK   78  A    between atoms: _208  and  _209
REMARK   79  A    between atoms: _211  and  _213
REMARK   80  A    between atoms: _213  and  _214
REMARK   81  A    between atoms: _213  and  _216
REMARK   82  A    between atoms: _216  and  _217
REMARK   83  A    between atoms: _222  and  _223
REMARK   84  A    between atoms: _225  and  _227
REMARK   85  A    between atoms: _227  and  _228
REMARK   86  A    between atoms: _230  and  _232
REMARK   87  A    between atoms: _232  and  _233
REMARK   88  A    between atoms: _235  and  _237
REMARK   89  A    between atoms: _237  and  _238
REMARK   90  A    between atoms: _237  and  _240
REMARK   91  A    between atoms: _240  and  _241
REMARK   92  A    between atoms: _246  and  _247
REMARK   93  A    between atoms: _249  and  _251
REMARK   94  A    between atoms: _251  and  _252
REMARK   95  A    between atoms: _251  and  _254
REMARK   96  A    between atoms: _254  and  _255
REMARK   97  A    between atoms: _258  and  _260
REMARK   98  A    between atoms: _260  and  _261
REMARK   99  A    between atoms: _264  and  _266
REMARK  100  A    between atoms: _266  and  _267
REMARK  101  A    between atoms: _269  and  _271
REMARK  102  A    between atoms: _271  and  _272
REMARK  103  A    between atoms: _271  and  _274
REMARK  104  A    between atoms: _274  and  _275
REMARK  105  A    between atoms: _278  and  _280
REMARK  106  A    between atoms: _280  and  _281
REMARK  107  A    between atoms: _280  and  _283
REMARK  108  A    between atoms: _283  and  _284
REMARK  109  A    between atoms: _287  and  _289
REMARK  110  A    between atoms: _289  and  _290
REMARK  111  A    between atoms: _289  and  _292
REMARK  112  A    between atoms: _292  and  _293
REMARK  113  A    between atoms: _296  and  _298
REMARK  114  A    between atoms: _298  and  _299
REMARK  115  A    between atoms: _298  and  _301
REMARK  116  A    between atoms: _304  and  _306
REMARK  117  A    between atoms: _306  and  _307
REMARK  118  A    between atoms: _306  and  _309
REMARK  119  A    between atoms: _309  and  _310
REMARK  120  A    between atoms: _313  and  _315
REMARK  121  A    between atoms: _315  and  _316
REMARK  122  A    between atoms: _315  and  _318
REMARK  123  A    between atoms: _318  and  _319
REMARK  124  A    between atoms: _324  and  _325
REMARK  125  A    between atoms: _327  and  _329
REMARK  126  A    between atoms: _329  and  _330
REMARK  127  A    between atoms: _329  and  _332
REMARK  128  A    between atoms: _332  and  _333
REMARK  129  A    between atoms: _333  and  _334
REMARK  130  A    between atoms: _336  and  _338
REMARK  131  A    between atoms: _338  and  _339
REMARK  132  A    between atoms: _338  and  _341
REMARK  133  A    between atoms: _341  and  _342
REMARK  134  A    between atoms: _347  and  _349
REMARK  135  A    between atoms: _349  and  _350
REMARK  136  A    between atoms: _349  and  _352
REMARK  137  A    between atoms: _352  and  _353
REMARK  138  A    between atoms: _358  and  _359
REMARK  139  A    between atoms: _361  and  _363
REMARK  140  A    between atoms: _363  and  _364
REMARK  141  A    between atoms: _363  and  _366
REMARK  142  A    between atoms: _366  and  _367
REMARK  143  A    between atoms: _372  and  _373
REMARK  144  A    between atoms: _375  and  _377
REMARK  145  A    between atoms: _377  and  _378
REMARK  146  A    between atoms: _377  and  _380
REMARK  147  A    between atoms: _380  and  _381
REMARK  148  A    between atoms: _384  and  _386
REMARK  149  A    between atoms: _386  and  _387
REMARK  150  A    between atoms: _386  and  _389
REMARK  151  A    between atoms: _389  and  _390
REMARK  152  A    between atoms: _395  and  _397
REMARK  153  A    between atoms: _397  and  _398
REMARK  154  A    between atoms: _397  and  _400
REMARK  155  A    between atoms: _400  and  _401
REMARK  156  A    between atoms: _401  and  _402
REMARK  157  A    between atoms: _407  and  _409
REMARK  158  A    between atoms: _409  and  _410
REMARK  159  A    between atoms: _409  and  _412
REMARK  160  A    between atoms: _412  and  _413
REMARK  161  A    between atoms: _416  and  _418
REMARK  162  A    between atoms: _418  and  _419
REMARK  163  A    between atoms: _421  and  _423
REMARK  164  A    between atoms: _423  and  _424
REMARK  165  A    between atoms: _423  and  _426
REMARK  166  A    between atoms: _430  and  _431
REMARK  167  A    between atoms: _436  and  _438
REMARK  168  A    between atoms: _438  and  _439
REMARK  169  A    between atoms: _442  and  _444
REMARK  170  A    between atoms: _444  and  _445
REMARK  171  A    between atoms: _444  and  _447
REMARK  172  A    between atoms: _447  and  _448
REMARK  173  A    between atoms: _454  and  _456
REMARK  174  A    between atoms: _456  and  _457
REMARK  175  A    between atoms: _456  and  _459
REMARK  176  A    between atoms: _459  and  _460
REMARK  177  A    between atoms: _463  and  _465
REMARK  178  A    between atoms: _465  and  _466
REMARK  179  A    between atoms: _465  and  _468
REMARK  180  A    between atoms: _468  and  _469
REMARK  181  A    between atoms: _469  and  _470
REMARK  182  A    between atoms: _473  and  _475
REMARK  183  A    between atoms: _475  and  _476
REMARK  184  A    between atoms: _475  and  _478
REMARK  185  A    between atoms: _478  and  _479
REMARK  186  A    between atoms: _484  and  _486
REMARK  187  A    between atoms: _486  and  _487
REMARK  188  A    between atoms: _489  and  _491
REMARK  189  A    between atoms: _491  and  _492
REMARK  190  A    between atoms: _491  and  _494
REMARK  191  A    between atoms: _494  and  _495
REMARK  192  A    between atoms: _495  and  _496
REMARK  193  A    between atoms: _498  and  _500
REMARK  194  A    between atoms: _500  and  _501
REMARK  195  A    between atoms: _503  and  _505
REMARK  196  A    between atoms: _505  and  _506
REMARK  197  A    between atoms: _505  and  _508
REMARK  198  A    between atoms: _508  and  _509
REMARK  199  A    between atoms: _519  and  _521
REMARK  200  A    between atoms: _521  and  _522
REMARK  201  A    between atoms: _525  and  _527
REMARK  202  A    between atoms: _527  and  _528
REMARK  203  A    between atoms: _527  and  _530
REMARK  204  A    between atoms: _530  and  _531
REMARK  205  A    between atoms: _534  and  _536
REMARK  206  A    between atoms: _536  and  _537
REMARK  207  A    between atoms: _536  and  _539
REMARK  208  A    between atoms: _539  and  _540
REMARK  209  A    between atoms: _545  and  _547
REMARK  210  A    between atoms: _547  and  _548
REMARK  211  A    between atoms: _547  and  _550
REMARK  212  A    between atoms: _550  and  _551
REMARK  213  A    between atoms: _557  and  _559
REMARK  214  A    between atoms: _559  and  _560
REMARK  215  A    between atoms: _559  and  _562
REMARK  216  A    between atoms: _562  and  _563
REMARK  217  A    between atoms: _563  and  _564
REMARK  218  A    between atoms: _567  and  _569
REMARK  219  A    between atoms: _569  and  _570
REMARK  220  A    between atoms: _569  and  _572
REMARK  221  A    between atoms: _572  and  _573
REMARK  222  A    between atoms: _583  and  _585
REMARK  223  A    between atoms: _585  and  _586
REMARK  224  A    between atoms: _585  and  _588
REMARK  225  A    between atoms: _588  and  _589
REMARK  226  A    between atoms: _592  and  _594
REMARK  227  A    between atoms: _594  and  _595
REMARK  228  A    between atoms: _594  and  _597
REMARK  229  A    between atoms: _597  and  _598
REMARK  230  A    between atoms: _600  and  _602
REMARK  231  A    between atoms: _602  and  _603
REMARK  232  A    between atoms: _605  and  _607
REMARK  233  A    between atoms: _607  and  _608
REMARK  234  A    between atoms: _607  and  _610
REMARK  235  A    between atoms: _610  and  _611
REMARK  236  A    between atoms: _614  and  _616
REMARK  237  A    between atoms: _616  and  _617
REMARK  238  A    between atoms: _616  and  _619
REMARK  239  A    between atoms: _619  and  _620
REMARK  240  A    between atoms: _620  and  _621
REMARK  241  A    between atoms: _626  and  _628
REMARK  242  A    between atoms: _628  and  _629
REMARK  243  A    between atoms: _628  and  _631
REMARK  244  A    between atoms: _631  and  _632
REMARK                            x       y       z     vdW  Elec       q    Type
REMARK                         _______ _______ _______ _____ _____    ______ ____
ROOT
ATOM      1  CA  THR A   1      11.005  29.436  22.690  0.00  0.00    +0.160 C 
ENDROOT
BRANCH   1   2
ATOM      2  N   THR A   1      12.332  30.036  22.758  0.00  0.00    -0.237 NA
ATOM      3  H   THR A   1      12.426  31.055  22.944  0.00  0.00    +0.142 HD
ENDBRANCH   1   2
BRANCH   1   4
ATOM      4  CB  THR A   1      10.136  29.901  23.870  0.00  0.00    +0.134 C 
ATOM      5  CG2 THR A   1       8.641  29.695  23.582  0.00  0.00    +0.034 C 
BRANCH   4   6
ATOM      6  OG1 THR A   1      10.501  29.151  25.037  0.00  0.00    -0.383 OA
ATOM      7  HG1 THR A   1      10.351  28.187  24.869  0.00  0.00    +0.210 HD
ENDBRANCH   4   6
ENDBRANCH   1   4
BRANCH   1   8
ATOM      8  C   THR A   1      10.318  29.752  21.358  0.00  0.00    +0.227 C 
ATOM      9  O   THR A   1      10.173  30.913  20.978  0.00  0.00    -0.287 OA
ENDBRANCH   1   8
TORSDOF 4
REMARK  Name = ../refined-set-2016/3wq6/3wq6_pocket.pdb
REMARK  244 active torsions:
REMARK  status: ('A' for Active; 'I' for Inactive)
REMARK    1  A    between atoms: _1  and  _3
REMARK    2  A    between atoms: _3  and  _4
REMARK    3  A    between atoms: _7  and  _9
REMARK    4  A    between atoms: _9  and  _10
REMARK    5  A    between atoms: _9  and  _12
REMARK    6  A    between atoms: _12  and  _13
REMARK    7  A    between atoms: _15  and  _17
REMARK    8  A    between atoms: _17  and  _18
REMARK    9  A    between atoms: _17  and  _20
REMARK   10  A    between atoms: _20  and  _21
REMARK   11  A    between atoms: _23  and  _25
REMARK   12  A    between atoms: _25  and  _26
REMARK   13  A    between atoms: _29  and  _31
REMARK   14  A    between atoms: _31  and  _32
REMARK   15  A    between atoms: _31  and  _34
REMARK   16  A    between atoms: _34  and  _35
REMARK   17  A    between atoms: _40  and  _41
REMARK   18  A    between atoms: _43  and  _45
REMARK   19  A    between atoms: _45  and  _46
REMARK   20  A    between atoms: _45  and  _48
REMARK   21  A    between atoms: _48  and  _49
REMARK   22  A    between atoms: _49  and  _50
REMARK   23  A    between atoms: _55  and  _57
REMARK   24  A    between atoms: _57  and  _58
REMARK   25  A    between atoms: _57  and  _60
REMARK   26  A    between atoms: _60  and  _61
REMARK   27  A    between atoms: _67  and  _69
REMARK   28  A    between atoms: _69  and  _70
REMARK   29  A    between atoms: _69  and  _72
REMARK   30  A    between atoms: _72  and  _73
REMARK   31  A    between atoms: _83  and  _85
REMARK   32  A    between atoms: _85  and  _86
REMARK   33  A    between atoms: _85  and  _88
REMARK   34  A    between atoms: _88  and  _89
REMARK   35  A    between atoms: _91  and  _93
REMARK   36  A    between atoms: _93  and  _94
REMARK   37  A    between atoms: _93  and  _96
REMARK   38  A    between atoms: _96  and  _97
REMARK   39  A    between atoms: _97  and  _98
REMARK   40  A    between atoms: _98  and  _99
REMARK   41  A    between atoms: _108  and  _110
REMARK   42  A    between atoms: _110  and  _111
REMARK   43  A    between atoms: _110  and  _113
REMARK   44  A    between atoms: _113  and  _114
REMARK   45  A    between atoms: _117  and  _119
REMARK   46  A    between atoms: _119  and  _120
REMARK   47  A    between atoms: _119  and  _122
REMARK   48  A    between atoms: _122  and  _123
REMARK   49  A    between atoms: _128  and  _130
REMARK   50  A    between atoms: _130  and  _131
REMARK   51  A    between atoms: _130  and  _133
REMARK   52  A    between atoms: _133  and  _134
REMARK   53  A    between atoms: _144  and  _146
REMARK   54  A    between atoms: _146  and  _147
REMARK   55  A    between atoms: _146  and  _149
REMARK   56  A    between atoms: _149  and  _150
REMARK   57  A    between atoms: _155  and  _157
REMARK   58  A    between atoms: _157  and  _158
REMARK   59  A    between atoms: _157  and  _160
REMARK   60  A    between atoms: _160  and  _161
REMARK   61  A    between atoms: _161  and  _162
REMARK   62  A    between atoms: _165  and  _167
REMARK   63  A    between atoms: _167  and  _168
REMARK   64  A    between atoms: _167  and  _170
REMARK   65  A    between atoms: _170  and  _171
REMARK   66  A    between atoms: _181  and  _183
REMARK   67  A    between atoms: _183  and  _184
REMARK   68  A    between atoms: _183  and  _186
REMARK   69  A    between atoms: _186  and  _187
REMARK   70  A    between atoms: _189  and  _191
REMARK   71  A    between atoms: _191  and  _192
REMARK   72  A    between atoms: _191  and  _194
REMARK   73  A    between atoms: _194  and  _195
REMARK   74  A    between atoms: _200  and  _201
REMARK   75  A    between atoms: _203  and  _205
REMARK   76  A    between atoms: _205  and  _206
REMARK   77  A    between atoms: _205  and  _208
REMARK   78  A    between atoms: _208  and  _209
REMARK   79  A    between atoms: _211  and  _213
REMARK   80  A    between atoms: _213  and  _214
REMARK   81  A    between atoms: _213  and  _216
REMARK   82  A    between atoms: _216  and  _217
REMARK   83  A    between atoms: _222  and  _223
REMARK   84  A    between atoms: _225  and  _227
REMARK   85  A    between atoms: _227  and  _228
REMARK   86  A    between atoms: _230  and  _232
REMARK   87  A    between atoms: _232  and  _233
REMARK   88  A    between atoms: _235  and  _237
REMARK   89  A    between atoms: _237  and  _238
REMARK   90  A    between atoms: _237  and  _240
REMARK   91  A    between atoms: _240  and  _241
REMARK   92  A    between atoms: _246  and  _247
REMARK   93  A    between atoms: _249  and  _251
REMARK   94  A    between atoms: _251  and  _252
REMARK   95  A    between atoms: _251  and  _254
REMARK   96  A    between atoms: _254  and  _255
REMARK   97  A    between atoms: _258  and  _260
REMARK   98  A    between atoms: _260  and  _261
REMARK   99  A    between atoms: _264  and  _266
REMARK  100  A    between atoms: _266  and  _267
REMARK  101  A    between atoms: _269  and  _271
REMARK  102  A    between atoms: _271  and  _272
REMARK  103  A    between atoms: _271  and  _274
REMARK  104  A    between atoms: _274  and  _275
REMARK  105  A    between atoms: _278  and  _280
REMARK  106  A    between atoms: _280  and  _281
REMARK  107  A    between atoms: _280  and  _283
REMARK  108  A    between atoms: _283  and  _284
REMARK  109  A    between atoms: _287  and  _289
REMARK  110  A    between atoms: _289  and  _290
REMARK  111  A    between atoms: _289  and  _292
REMARK  112  A    between atoms: _292  and  _293
REMARK  113  A    between atoms: _296  and  _298
REMARK  114  A    between atoms: _298  and  _299
REMARK  115  A    between atoms: _298  and  _301
REMARK  116  A    between atoms: _304  and  _306
REMARK  117  A    between atoms: _306  and  _307
REMARK  118  A    between atoms: _306  and  _309
REMARK  119  A    between atoms: _309  and  _310
REMARK  120  A    between atoms: _313  and  _315
REMARK  121  A    between atoms: _315  and  _316
REMARK  122  A    between atoms: _315  and  _318
REMARK  123  A    between atoms: _318  and  _319
REMARK  124  A    between atoms: _324  and  _325
REMARK  125  A    between atoms: _327  and  _329
REMARK  126  A    between atoms: _329  and  _330
REMARK  127  A    between atoms: _329  and  _332
REMARK  128  A    between atoms: _332  and  _333
REMARK  129  A    between atoms: _333  and  _334
REMARK  130  A    between atoms: _336  and  _338
REMARK  131  A    between atoms: _338  and  _339
REMARK  132  A    between atoms: _338  and  _341
REMARK  133  A    between atoms: _341  and  _342
REMARK  134  A    between atoms: _347  and  _349
REMARK  135  A    between atoms: _349  and  _350
REMARK  136  A    between atoms: _349  and  _352
REMARK  137  A    between atoms: _352  and  _353
REMARK  138  A    between atoms: _358  and  _359
REMARK  139  A    between atoms: _361  and  _363
REMARK  140  A    between atoms: _363  and  _364
REMARK  141  A    between atoms: _363  and  _366
REMARK  142  A    between atoms: _366  and  _367
REMARK  143  A    between atoms: _372  and  _373
REMARK  144  A    between atoms: _375  and  _377
REMARK  145  A    between atoms: _377  and  _378
REMARK  146  A    between atoms: _377  and  _380
REMARK  147  A    between atoms: _380  and  _381
REMARK  148  A    between atoms: _384  and  _386
REMARK  149  A    between atoms: _386  and  _387
REMARK  150  A    between atoms: _386  and  _389
REMARK  151  A    between atoms: _389  and  _390
REMARK  152  A    between atoms: _395  and  _397
REMARK  153  A    between atoms: _397  and  _398
REMARK  154  A    between atoms: _397  and  _400
REMARK  155  A    between atoms: _400  and  _401
REMARK  156  A    between atoms: _401  and  _402
REMARK  157  A    between atoms: _407  and  _409
REMARK  158  A    between atoms: _409  and  _410
REMARK  159  A    between atoms: _409  and  _412
REMARK  160  A    between atoms: _412  and  _413
REMARK  161  A    between atoms: _416  and  _418
REMARK  162  A    between atoms: _418  and  _419
REMARK  163  A    between atoms: _421  and  _423
REMARK  164  A    between atoms: _423  and  _424
REMARK  165  A    between atoms: _423  and  _426
REMARK  166  A    between atoms: _430  and  _431
REMARK  167  A    between atoms: _436  and  _438
REMARK  168  A    between atoms: _438  and  _439
REMARK  169  A    between atoms: _442  and  _444
REMARK  170  A    between atoms: _444  and  _445
REMARK  171  A    between atoms: _444  and  _447
REMARK  172  A    between atoms: _447  and  _448
REMARK  173  A    between atoms: _454  and  _456
REMARK  174  A    between atoms: _456  and  _457
REMARK  175  A    between atoms: _456  and  _459
REMARK  176  A    between atoms: _459  and  _460
REMARK  177  A    between atoms: _463  and  _465
REMARK  178  A    between atoms: _465  and  _466
REMARK  179  A    between atoms: _465  and  _468
REMARK  180  A    between atoms: _468  and  _469
REMARK  181  A    between atoms: _469  and  _470
REMARK  182  A    between atoms: _473  and  _475
REMARK  183  A    between atoms: _475  and  _476
REMARK  184  A    between atoms: _475  and  _478
REMARK  185  A    between atoms: _478  and  _479
REMARK  186  A    between atoms: _484  and  _486
REMARK  187  A    between atoms: _486  and  _487
REMARK  188  A    between atoms: _489  and  _491
REMARK  189  A    between atoms: _491  and  _492
REMARK  190  A    between atoms: _491  and  _494
REMARK  191  A    between atoms: _494  and  _495
REMARK  192  A    between atoms: _495  and  _496
REMARK  193  A    between atoms: _498  and  _500
REMARK  194  A    between atoms: _500  and  _501
REMARK  195  A    between atoms: _503  and  _505
REMARK  196  A    between atoms: _505  and  _506
REMARK  197  A    between atoms: _505  and  _508
REMARK  198  A    between atoms: _508  and  _509
REMARK  199  A    between atoms: _519  and  _521
REMARK  200  A    between atoms: _521  and  _522
REMARK  201  A    between atoms: _525  and  _527
REMARK  202  A    between atoms: _527  and  _528
REMARK  203  A    between atoms: _527  and  _530
REMARK  204  A    between atoms: _530  and  _531
REMARK  205  A    between atoms: _534  and  _536
REMARK  206  A    between atoms: _536  and  _537
REMARK  207  A    between atoms: _536  and  _539
REMARK  208  A    between atoms: _539  and  _540
REMARK  209  A    between atoms: _545  and  _547
REMARK  210  A    between atoms: _547  and  _548
REMARK  211  A    between atoms: _547  and  _550
REMARK  212  A    between atoms: _550  and  _551
REMARK  213  A    between atoms: _557  and  _559
REMARK  214  A    between atoms: _559  and  _560
REMARK  215  A    between atoms: _559  and  _562
REMARK  216  A    between atoms: _562  and  _563
REMARK  217  A    between atoms: _563  and  _564
REMARK  218  A    between atoms: _567  and  _569
REMARK  219  A    between atoms: _569  and  _570
REMARK  220  A    between atoms: _569  and  _572
REMARK  221  A    between atoms: _572  and  _573
REMARK  222  A    between atoms: _583  and  _585
REMARK  223  A    between atoms: _585  and  _586
REMARK  224  A    between atoms: _585  and  _588
REMARK  225  A    between atoms: _588  and  _589
REMARK  226  A    between atoms: _592  and  _594
REMARK  227  A    between atoms: _594  and  _595
REMARK  228  A    between atoms: _594  and  _597
REMARK  229  A    between atoms: _597  and  _598
REMARK  230  A    between atoms: _600  and  _602
REMARK  231  A    between atoms: _602  and  _603
REMARK  232  A    between atoms: _605  and  _607
REMARK  233  A    between atoms: _607  and  _608
REMARK  234  A    between atoms: _607  and  _610
REMARK  235  A    between atoms: _610  and  _611
REMARK  236  A    between atoms: _614  and  _616
REMARK  237  A    between atoms: _616  and  _617
REMARK  238  A    between atoms: _616  and  _619
REMARK  239  A    between atoms: _619  and  _620
REMARK  240  A    between atoms: _620  and  _621
REMARK  241  A    between atoms: _626  and  _628
REMARK  242  A    between atoms: _628  and  _629
REMARK  243  A    between atoms: _628  and  _631
REMARK  244  A    between atoms: _631  and  _632
REMARK                            x       y       z     vdW  Elec       q    Type
REMARK                         _______ _______ _______ _____ _____    ______ ____
ROOT
ATOM      1  C   THR A   2       2.544  25.630  16.114  0.00  0.00    +0.243 C 
ATOM      2  O   THR A   2       2.417  24.928  17.124  0.00  0.00    -0.273 OA
ATOM      3  N   TYR A   3       1.590  25.779  15.205  0.00  0.00    -0.298 N 
ATOM      4  H   TYR A   3       1.640  26.577  14.540  0.00  0.00    +0.150 HD
ENDROOT
BRANCH   1   5
ATOM      5  CA  THR A   2       3.816  26.426  15.865  0.00  0.00    +0.176 C 
BRANCH   5   7
ATOM      6  C   VAL A   1       5.185  27.852  17.254  0.00  0.00    +0.238 C 
ATOM      7  N   THR A   2       4.436  26.762  17.138  0.00  0.00    -0.295 N 
ATOM      8  H   THR A   2       4.291  26.144  17.962  0.00  0.00    +0.150 HD
ATOM      9  O   VAL A   1       5.604  28.472  16.279  0.00  0.00    -0.274 OA
BRANCH   6  10
ATOM     10  CA  VAL A   1       5.524  28.298  18.671  0.00  0.00    +0.145 C 
BRANCH  10  11
ATOM     11  CB  VAL A   1       4.491  29.344  19.141  0.00  0.00    +0.025 C 
ATOM     12  CG2 VAL A   1       3.095  28.730  19.234  0.00  0.00    +0.002 C 
ATOM     13  CG1 VAL A   1       4.494  30.578  18.227  0.00  0.00    +0.002 C 
ENDBRANCH  10  11
BRANCH  10  14
ATOM     14  N   VAL A   1       6.882  28.823  18.718  0.00  0.00    -0.238 NA
ATOM     15  H   VAL A   1       7.141  29.621  18.104  0.00  0.00    +0.142 HD
ENDBRANCH  10  14
ENDBRANCH   6  10
ENDBRANCH   5   7
BRANCH   5  16
ATOM     16  CB  THR A   2       4.765  25.625  14.943  0.00  0.00    +0.137 C 
ATOM     17  CG2 THR A   2       5.058  24.247  15.529  0.00  0.00    +0.034 C 
BRANCH  16  18
ATOM     18  OG1 THR A   2       4.161  25.458  13.653  0.00  0.00    -0.382 OA
ATOM     19  HG1 THR A   2       3.307  24.967  13.751  0.00  0.00    +0.210 HD
ENDBRANCH  16  18
ENDBRANCH   5  16
ENDBRANCH   1   5
BRANCH   3  20
ATOM     20  CA  TYR A   3       0.476  24.850  15.118  0.00  0.00    +0.141 C 
BRANCH  20  21
ATOM     21  C   TYR A   3       0.997  23.565  14.495  0.00  0.00    +0.227 C 
ATOM     22  O   TYR A   3       1.925  23.604  13.686  0.00  0.00    -0.286 OA
ENDBRANCH  20  21
BRANCH  20  23
ATOM     23  CB  TYR A   3      -0.654  25.401  14.254  0.00  0.00    +0.054 C 
BRANCH  23  24
ATOM     24  CG  TYR A   3      -1.171  26.773  14.606  0.00  0.00    -0.020 A 
ATOM     25  CD2 TYR A   3      -1.302  27.187  15.926  0.00  0.00    -0.001 A 
ATOM     26  CE2 TYR A   3      -1.798  28.447  16.226  0.00  0.00    +0.036 A 
ATOM     27  CZ  TYR A   3      -2.166  29.299  15.194  0.00  0.00    +0.134 A 
ATOM     28  CE1 TYR A   3      -2.039  28.903  13.888  0.00  0.00    +0.036 A 
ATOM     29  CD1 TYR A   3      -1.548  27.650  13.603  0.00  0.00    -0.001 A 
BRANCH  27  30
ATOM     30  OH  TYR A   3      -2.658  30.556  15.454  0.00  0.00    -0.506 OA
ATOM     31  HH  TYR A   3      -3.569  30.637  15.075  0.00  0.00    +0.292 HD
ENDBRANCH  27  30
ENDBRANCH  23  24
ENDBRANCH  20  23
ENDBRANCH   3  20
TORSDOF 12
REMARK  Name = ../refined-set-2016/3wq6/3wq6_pocket.pdb
REMARK  244 active torsions:
REMARK  status: ('A' for Active; 'I' for Inactive)
REMARK    1  A    between atoms: _1  and  _3
REMARK    2  A    between atoms: _3  and  _4
REMARK    3  A    between atoms: _7  and  _9
REMARK    4  A    between atoms: _9  and  _10
REMARK    5  A    between atoms: _9  and  _12
REMARK    6  A    between atoms: _12  and  _13
REMARK    7  A    between atoms: _15  and  _17
REMARK    8  A    between atoms: _17  and  _18
REMARK    9  A    between atoms: _17  and  _20
REMARK   10  A    between atoms: _20  and  _21
REMARK   11  A    between atoms: _23  and  _25
REMARK   12  A    between atoms: _25  and  _26
REMARK   13  A    between atoms: _29  and  _31
REMARK   14  A    between atoms: _31  and  _32
REMARK   15  A    between atoms: _31  and  _34
REMARK   16  A    between atoms: _34  and  _35
REMARK   17  A    between atoms: _40  and  _41
REMARK   18  A    between atoms: _43  and  _45
REMARK   19  A    between atoms: _45  and  _46
REMARK   20  A    between atoms: _45  and  _48
REMARK   21  A    between atoms: _48  and  _49
REMARK   22  A    between atoms: _49  and  _50
REMARK   23  A    between atoms: _55  and  _57
REMARK   24  A    between atoms: _57  and  _58
REMARK   25  A    between atoms: _57  and  _60
REMARK   26  A    between atoms: _60  and  _61
REMARK   27  A    between atoms: _67  and  _69
REMARK   28  A    between atoms: _69  and  _70
REMARK   29  A    between atoms: _69  and  _72
REMARK   30  A    between atoms: _72  and  _73
REMARK   31  A    between atoms: _83  and  _85
REMARK   32  A    between atoms: _85  and  _86
REMARK   33  A    between atoms: _85  and  _88
REMARK   34  A    between atoms: _88  and  _89
REMARK   35  A    between atoms: _91  and  _93
REMARK   36  A    between atoms: _93  and  _94
REMARK   37  A    between atoms: _93  and  _96
REMARK   38  A    between atoms: _96  and  _97
REMARK   39  A    between atoms: _97  and  _98
REMARK   40  A    between atoms: _98  and  _99
REMARK   41  A    between atoms: _108  and  _110
REMARK   42  A    between atoms: _110  and  _111
REMARK   43  A    between atoms: _110  and  _113
REMARK   44  A    between atoms: _113  and  _114
REMARK   45  A    between atoms: _117  and  _119
REMARK   46  A    between atoms: _119  and  _120
REMARK   47  A    between atoms: _119  and  _122
REMARK   48  A    between atoms: _122  and  _123
REMARK   49  A    between atoms: _128  and  _130
REMARK   50  A    between atoms: _130  and  _131
REMARK   51  A    between atoms: _130  and  _133
REMARK   52  A    between atoms: _133  and  _134
REMARK   53  A    between atoms: _144  and  _146
REMARK   54  A    between atoms: _146  and  _147
REMARK   55  A    between atoms: _146  and  _149
REMARK   56  A    between atoms: _149  and  _150
REMARK   57  A    between atoms: _155  and  _157
REMARK   58  A    between atoms: _157  and  _158
REMARK   59  A    between atoms: _157  and  _160
REMARK   60  A    between atoms: _160  and  _161
REMARK   61  A    between atoms: _161  and  _162
REMARK   62  A    between atoms: _165  and  _167
REMARK   63  A    between atoms: _167  and  _168
REMARK   64  A    between atoms: _167  and  _170
REMARK   65  A    between atoms: _170  and  _171
REMARK   66  A    between atoms: _181  and  _183
REMARK   67  A    between atoms: _183  and  _184
REMARK   68  A    between atoms: _183  and  _186
REMARK   69  A    between atoms: _186  and  _187
REMARK   70  A    between atoms: _189  and  _191
REMARK   71  A    between atoms: _191  and  _192
REMARK   72  A    between atoms: _191  and  _194
REMARK   73  A    between atoms: _194  and  _195
REMARK   74  A    between atoms: _200  and  _201
REMARK   75  A    between atoms: _203  and  _205
REMARK   76  A    between atoms: _205  and  _206
REMARK   77  A    between atoms: _205  and  _208
REMARK   78  A    between atoms: _208  and  _209
REMARK   79  A    between atoms: _211  and  _213
REMARK   80  A    between atoms: _213  and  _214
REMARK   81  A    between atoms: _213  and  _216
REMARK   82  A    between atoms: _216  and  _217
REMARK   83  A    between atoms: _222  and  _223
REMARK   84  A    between atoms: _225  and  _227
REMARK   85  A    between atoms: _227  and  _228
REMARK   86  A    between atoms: _230  and  _232
REMARK   87  A    between atoms: _232  and  _233
REMARK   88  A    between atoms: _235  and  _237
REMARK   89  A    between atoms: _237  and  _238
REMARK   90  A    between atoms: _237  and  _240
REMARK   91  A    between atoms: _240  and  _241
REMARK   92  A    between atoms: _246  and  _247
REMARK   93  A    between atoms: _249  and  _251
REMARK   94  A    between atoms: _251  and  _252
REMARK   95  A    between atoms: _251  and  _254
REMARK   96  A    between atoms: _254  and  _255
REMARK   97  A    between atoms: _258  and  _260
REMARK   98  A    between atoms: _260  and  _261
REMARK   99  A    between atoms: _264  and  _266
REMARK  100  A    between atoms: _266  and  _267
REMARK  101  A    between atoms: _269  and  _271
REMARK  102  A    between atoms: _271  and  _272
REMARK  103  A    between atoms: _271  and  _274
REMARK  104  A    between atoms: _274  and  _275
REMARK  105  A    between atoms: _278  and  _280
REMARK  106  A    between atoms: _280  and  _281
REMARK  107  A    between atoms: _280  and  _283
REMARK  108  A    between atoms: _283  and  _284
REMARK  109  A    between atoms: _287  and  _289
REMARK  110  A    between atoms: _289  and  _290
REMARK  111  A    between atoms: _289  and  _292
REMARK  112  A    between atoms: _292  and  _293
REMARK  113  A    between atoms: _296  and  _298
REMARK  114  A    between atoms: _298  and  _299
REMARK  115  A    between atoms: _298  and  _301
REMARK  116  A    between atoms: _304  and  _306
REMARK  117  A    between atoms: _306  and  _307
REMARK  118  A    between atoms: _306  and  _309
REMARK  119  A    between atoms: _309  and  _310
REMARK  120  A    between atoms: _313  and  _315
REMARK  121  A    between atoms: _315  and  _316
REMARK  122  A    between atoms: _315  and  _318
REMARK  123  A    between atoms: _318  and  _319
REMARK  124  A    between atoms: _324  and  _325
REMARK  125  A    between atoms: _327  and  _329
REMARK  126  A    between atoms: _329  and  _330
REMARK  127  A    between atoms: _329  and  _332
REMARK  128  A    between atoms: _332  and  _333
REMARK  129  A    between atoms: _333  and  _334
REMARK  130  A    between atoms: _336  and  _338
REMARK  131  A    between atoms: _338  and  _339
REMARK  132  A    between atoms: _338  and  _341
REMARK  133  A    between atoms: _341  and  _342
REMARK  134  A    between atoms: _347  and  _349
REMARK  135  A    between atoms: _349  and  _350
REMARK  136  A    between atoms: _349  and  _352
REMARK  137  A    between atoms: _352  and  _353
REMARK  138  A    between atoms: _358  and  _359
REMARK  139  A    between atoms: _361  and  _363
REMARK  140  A    between atoms: _363  and  _364
REMARK  141  A    between atoms: _363  and  _366
REMARK  142  A    between atoms: _366  and  _367
REMARK  143  A    between atoms: _372  and  _373
REMARK  144  A    between atoms: _375  and  _377
REMARK  145  A    between atoms: _377  and  _378
REMARK  146  A    between atoms: _377  and  _380
REMARK  147  A    between atoms: _380  and  _381
REMARK  148  A    between atoms: _384  and  _386
REMARK  149  A    between atoms: _386  and  _387
REMARK  150  A    between atoms: _386  and  _389
REMARK  151  A    between atoms: _389  and  _390
REMARK  152  A    between atoms: _395  and  _397
REMARK  153  A    between atoms: _397  and  _398
REMARK  154  A    between atoms: _397  and  _400
REMARK  155  A    between atoms: _400  and  _401
REMARK  156  A    between atoms: _401  and  _402
REMARK  157  A    between atoms: _407  and  _409
REMARK  158  A    between atoms: _409  and  _410
REMARK  159  A    between atoms: _409  and  _412
REMARK  160  A    between atoms: _412  and  _413
REMARK  161  A    between atoms: _416  and  _418
REMARK  162  A    between atoms: _418  and  _419
REMARK  163  A    between atoms: _421  and  _423
REMARK  164  A    between atoms: _423  and  _424
REMARK  165  A    between atoms: _423  and  _426
REMARK  166  A    between atoms: _430  and  _431
REMARK  167  A    between atoms: _436  and  _438
REMARK  168  A    between atoms: _438  and  _439
REMARK  169  A    between atoms: _442  and  _444
REMARK  170  A    between atoms: _444  and  _445
REMARK  171  A    between atoms: _444  and  _447
REMARK  172  A    between atoms: _447  and  _448
REMARK  173  A    between atoms: _454  and  _456
REMARK  174  A    between atoms: _456  and  _457
REMARK  175  A    between atoms: _456  and  _459
REMARK  176  A    between atoms: _459  and  _460
REMARK  177  A    between atoms: _463  and  _465
REMARK  178  A    between atoms: _465  and  _466
REMARK  179  A    between atoms: _465  and  _468
REMARK  180  A    between atoms: _468  and  _469
REMARK  181  A    between atoms: _469  and  _470
REMARK  182  A    between atoms: _473  and  _475
REMARK  183  A    between atoms: _475  and  _476
REMARK  184  A    between atoms: _475  and  _478
REMARK  185  A    between atoms: _478  and  _479
REMARK  186  A    between atoms: _484  and  _486
REMARK  187  A    between atoms: _486  and  _487
REMARK  188  A    between atoms: _489  and  _491
REMARK  189  A    between atoms: _491  and  _492
REMARK  190  A    between atoms: _491  and  _494
REMARK  191  A    between atoms: _494  and  _495
REMARK  192  A    between atoms: _495  and  _496
REMARK  193  A    between atoms: _498  and  _500
REMARK  194  A    between atoms: _500  and  _501
REMARK  195  A    between atoms: _503  and  _505
REMARK  196  A    between atoms: _505  and  _506
REMARK  197  A    between atoms: _505  and  _508
REMARK  198  A    between atoms: _508  and  _509
REMARK  199  A    between atoms: _519  and  _521
REMARK  200  A    between atoms: _521  and  _522
REMARK  201  A    between atoms: _525  and  _527
REMARK  202  A    between atoms: _527  and  _528
REMARK  203  A    between atoms: _527  and  _530
REMARK  204  A    between atoms: _530  and  _531
REMARK  205  A    between atoms: _534  and  _536
REMARK  206  A    between atoms: _536  and  _537
REMARK  207  A    between atoms: _536  and  _539
REMARK  208  A    between atoms: _539  and  _540
REMARK  209  A    between atoms: _545  and  _547
REMARK  210  A    between atoms: _547  and  _548
REMARK  211  A    between atoms: _547  and  _550
REMARK  212  A    between atoms: _550  and  _551
REMARK  213  A    between atoms: _557  and  _559
REMARK  214  A    between atoms: _559  and  _560
REMARK  215  A    between atoms: _559  and  _562
REMARK  216  A    between atoms: _562  and  _563
REMARK  217  A    between atoms: _563  and  _564
REMARK  218  A    between atoms: _567  and  _569
REMARK  219  A    between atoms: _569  and  _570
REMARK  220  A    between atoms: _569  and  _572
REMARK  221  A    between atoms: _572  and  _573
REMARK  222  A    between atoms: _583  and  _585
REMARK  223  A    between atoms: _585  and  _586
REMARK  224  A    between atoms: _585  and  _588
REMARK  225  A    between atoms: _588  and  _589
REMARK  226  A    between atoms: _592  and  _594
REMARK  227  A    between atoms: _594  and  _595
REMARK  228  A    between atoms: _594  and  _597
REMARK  229  A    between atoms: _597  and  _598
REMARK  230  A    between atoms: _600  and  _602
REMARK  231  A    between atoms: _602  and  _603
REMARK  232  A    between atoms: _605  and  _607
REMARK  233  A    between atoms: _607  and  _608
REMARK  234  A    between atoms: _607  and  _610
REMARK  235  A    between atoms: _610  and  _611
REMARK  236  A    between atoms: _614  and  _616
REMARK  237  A    between atoms: _616  and  _617
REMARK  238  A    between atoms: _616  and  _619
REMARK  239  A    between atoms: _619  and  _620
REMARK  240  A    between atoms: _620  and  _621
REMARK  241  A    between atoms: _626  and  _628
REMARK  242  A    between atoms: _628  and  _629
REMARK  243  A    between atoms: _628  and  _631
REMARK  244  A    between atoms: _631  and  _632
REMARK                            x       y       z     vdW  Elec       q    Type
REMARK                         _______ _______ _______ _____ _____    ______ ____
ROOT
ATOM      1  CA  MET A   1       5.364  29.336  10.856  0.00  0.00    +0.134 C 
ENDROOT
BRANCH   1   2
ATOM      2  N   MET A   1       5.593  29.018   9.447  0.00  0.00    -0.239 NA
ATOM      3  H   MET A   1       5.291  28.098   9.067  0.00  0.00    +0.142 HD
ENDBRANCH   1   2
BRANCH   1   4
ATOM      4  C   MET A   1       6.526  28.876  11.737  0.00  0.00    +0.224 C 
ATOM      5  O   MET A   1       7.047  29.647  12.550  0.00  0.00    -0.287 OA
ENDBRANCH   1   4
BRANCH   1   6
ATOM      6  CB  MET A   1       4.057  28.712  11.350  0.00  0.00    +0.037 C 
BRANCH   6   7
ATOM      7  CG  MET A   1       3.698  29.109  12.782  0.00  0.00    +0.059 C 
BRANCH   7   8
ATOM      8  SD  MET A   1       2.056  28.521  13.240  0.00  0.00    -0.139 S 
ATOM      9  CE  MET A   1       1.789  29.393  14.781  0.00  0.00    +0.069 C 
ENDBRANCH   7   8
ENDBRANCH   6   7
ENDBRANCH   1   6
TORSDOF 5
REMARK  Name = ../refined-set-2016/3wq6/3wq6_pocket.pdb
REMARK  244 active torsions:
REMARK  status: ('A' for Active; 'I' for Inactive)
REMARK    1  A    between atoms: _1  and  _3
REMARK    2  A    between atoms: _3  and  _4
REMARK    3  A    between atoms: _7  and  _9
REMARK    4  A    between atoms: _9  and  _10
REMARK    5  A    between atoms: _9  and  _12
REMARK    6  A    between atoms: _12  and  _13
REMARK    7  A    between atoms: _15  and  _17
REMARK    8  A    between atoms: _17  and  _18
REMARK    9  A    between atoms: _17  and  _20
REMARK   10  A    between atoms: _20  and  _21
REMARK   11  A    between atoms: _23  and  _25
REMARK   12  A    between atoms: _25  and  _26
REMARK   13  A    between atoms: _29  and  _31
REMARK   14  A    between atoms: _31  and  _32
REMARK   15  A    between atoms: _31  and  _34
REMARK   16  A    between atoms: _34  and  _35
REMARK   17  A    between atoms: _40  and  _41
REMARK   18  A    between atoms: _43  and  _45
REMARK   19  A    between atoms: _45  and  _46
REMARK   20  A    between atoms: _45  and  _48
REMARK   21  A    between atoms: _48  and  _49
REMARK   22  A    between atoms: _49  and  _50
REMARK   23  A    between atoms: _55  and  _57
REMARK   24  A    between atoms: _57  and  _58
REMARK   25  A    between atoms: _57  and  _60
REMARK   26  A    between atoms: _60  and  _61
REMARK   27  A    between atoms: _67  and  _69
REMARK   28  A    between atoms: _69  and  _70
REMARK   29  A    between atoms: _69  and  _72
REMARK   30  A    between atoms: _72  and  _73
REMARK   31  A    between atoms: _83  and  _85
REMARK   32  A    between atoms: _85  and  _86
REMARK   33  A    between atoms: _85  and  _88
REMARK   34  A    between atoms: _88  and  _89
REMARK   35  A    between atoms: _91  and  _93
REMARK   36  A    between atoms: _93  and  _94
REMARK   37  A    between atoms: _93  and  _96
REMARK   38  A    between atoms: _96  and  _97
REMARK   39  A    between atoms: _97  and  _98
REMARK   40  A    between atoms: _98  and  _99
REMARK   41  A    between atoms: _108  and  _110
REMARK   42  A    between atoms: _110  and  _111
REMARK   43  A    between atoms: _110  and  _113
REMARK   44  A    between atoms: _113  and  _114
REMARK   45  A    between atoms: _117  and  _119
REMARK   46  A    between atoms: _119  and  _120
REMARK   47  A    between atoms: _119  and  _122
REMARK   48  A    between atoms: _122  and  _123
REMARK   49  A    between atoms: _128  and  _130
REMARK   50  A    between atoms: _130  and  _131
REMARK   51  A    between atoms: _130  and  _133
REMARK   52  A    between atoms: _133  and  _134
REMARK   53  A    between atoms: _144  and  _146
REMARK   54  A    between atoms: _146  and  _147
REMARK   55  A    between atoms: _146  and  _149
REMARK   56  A    between atoms: _149  and  _150
REMARK   57  A    between atoms: _155  and  _157
REMARK   58  A    between atoms: _157  and  _158
REMARK   59  A    between atoms: _157  and  _160
REMARK   60  A    between atoms: _160  and  _161
REMARK   61  A    between atoms: _161  and  _162
REMARK   62  A    between atoms: _165  and  _167
REMARK   63  A    between atoms: _167  and  _168
REMARK   64  A    between atoms: _167  and  _170
REMARK   65  A    between atoms: _170  and  _171
REMARK   66  A    between atoms: _181  and  _183
REMARK   67  A    between atoms: _183  and  _184
REMARK   68  A    between atoms: _183  and  _186
REMARK   69  A    between atoms: _186  and  _187
REMARK   70  A    between atoms: _189  and  _191
REMARK   71  A    between atoms: _191  and  _192
REMARK   72  A    between atoms: _191  and  _194
REMARK   73  A    between atoms: _194  and  _195
REMARK   74  A    between atoms: _200  and  _201
REMARK   75  A    between atoms: _203  and  _205
REMARK   76  A    between atoms: _205  and  _206
REMARK   77  A    between atoms: _205  and  _208
REMARK   78  A    between atoms: _208  and  _209
REMARK   79  A    between atoms: _211  and  _213
REMARK   80  A    between atoms: _213  and  _214
REMARK   81  A    between atoms: _213  and  _216
REMARK   82  A    between atoms: _216  and  _217
REMARK   83  A    between atoms: _222  and  _223
REMARK   84  A    between atoms: _225  and  _227
REMARK   85  A    between atoms: _227  and  _228
REMARK   86  A    between atoms: _230  and  _232
REMARK   87  A    between atoms: _232  and  _233
REMARK   88  A    between atoms: _235  and  _237
REMARK   89  A    between atoms: _237  and  _238
REMARK   90  A    between atoms: _237  and  _240
REMARK   91  A    between atoms: _240  and  _241
REMARK   92  A    between atoms: _246  and  _247
REMARK   93  A    between atoms: _249  and  _251
REMARK   94  A    between atoms: _251  and  _252
REMARK   95  A    between atoms: _251  and  _254
REMARK   96  A    between atoms: _254  and  _255
REMARK   97  A    between atoms: _258  and  _260
REMARK   98  A    between atoms: _260  and  _261
REMARK   99  A    between atoms: _264  and  _266
REMARK  100  A    between atoms: _266  and  _267
REMARK  101  A    between atoms: _269  and  _271
REMARK  102  A    between atoms: _271  and  _272
REMARK  103  A    between atoms: _271  and  _274
REMARK  104  A    between atoms: _274  and  _275
REMARK  105  A    between atoms: _278  and  _280
REMARK  106  A    between atoms: _280  and  _281
REMARK  107  A    between atoms: _280  and  _283
REMARK  108  A    between atoms: _283  and  _284
REMARK  109  A    between atoms: _287  and  _289
REMARK  110  A    between atoms: _289  and  _290
REMARK  111  A    between atoms: _289  and  _292
REMARK  112  A    between atoms: _292  and  _293
REMARK  113  A    between atoms: _296  and  _298
REMARK  114  A    between atoms: _298  and  _299
REMARK  115  A    between atoms: _298  and  _301
REMARK  116  A    between atoms: _304  and  _306
REMARK  117  A    between atoms: _306  and  _307
REMARK  118  A    between atoms: _306  and  _309
REMARK  119  A    between atoms: _309  and  _310
REMARK  120  A    between atoms: _313  and  _315
REMARK  121  A    between atoms: _315  and  _316
REMARK  122  A    between atoms: _315  and  _318
REMARK  123  A    between atoms: _318  and  _319
REMARK  124  A    between atoms: _324  and  _325
REMARK  125  A    between atoms: _327  and  _329
REMARK  126  A    between atoms: _329  and  _330
REMARK  127  A    between atoms: _329  and  _332
REMARK  128  A    between atoms: _332  and  _333
REMARK  129  A    between atoms: _333  and  _334
REMARK  130  A    between atoms: _336  and  _338
REMARK  131  A    between atoms: _338  and  _339
REMARK  132  A    between atoms: _338  and  _341
REMARK  133  A    between atoms: _341  and  _342
REMARK  134  A    between atoms: _347  and  _349
REMARK  135  A    between atoms: _349  and  _350
REMARK  136  A    between atoms: _349  and  _352
REMARK  137  A    between atoms: _352  and  _353
REMARK  138  A    between atoms: _358  and  _359
REMARK  139  A    between atoms: _361  and  _363
REMARK  140  A    between atoms: _363  and  _364
REMARK  141  A    between atoms: _363  and  _366
REMARK  142  A    between atoms: _366  and  _367
REMARK  143  A    between atoms: _372  and  _373
REMARK  144  A    between atoms: _375  and  _377
REMARK  145  A    between atoms: _377  and  _378
REMARK  146  A    between atoms: _377  and  _380
REMARK  147  A    between atoms: _380  and  _381
REMARK  148  A    between atoms: _384  and  _386
REMARK  149  A    between atoms: _386  and  _387
REMARK  150  A    between atoms: _386  and  _389
REMARK  151  A    between atoms: _389  and  _390
REMARK  152  A    between atoms: _395  and  _397
REMARK  153  A    between atoms: _397  and  _398
REMARK  154  A    between atoms: _397  and  _400
REMARK  155  A    between atoms: _400  and  _401
REMARK  156  A    between atoms: _401  and  _402
REMARK  157  A    between atoms: _407  and  _409
REMARK  158  A    between atoms: _409  and  _410
REMARK  159  A    between atoms: _409  and  _412
REMARK  160  A    between atoms: _412  and  _413
REMARK  161  A    between atoms: _416  and  _418
REMARK  162  A    between atoms: _418  and  _419
REMARK  163  A    between atoms: _421  and  _423
REMARK  164  A    between atoms: _423  and  _424
REMARK  165  A    between atoms: _423  and  _426
REMARK  166  A    between atoms: _430  and  _431
REMARK  167  A    between atoms: _436  and  _438
REMARK  168  A    between atoms: _438  and  _439
REMARK  169  A    between atoms: _442  and  _444
REMARK  170  A    between atoms: _444  and  _445
REMARK  171  A    between atoms: _444  and  _447
REMARK  172  A    between atoms: _447  and  _448
REMARK  173  A    between atoms: _454  and  _456
REMARK  174  A    between atoms: _456  and  _457
REMARK  175  A    between atoms: _456  and  _459
REMARK  176  A    between atoms: _459  and  _460
REMARK  177  A    between atoms: _463  and  _465
REMARK  178  A    between atoms: _465  and  _466
REMARK  179  A    between atoms: _465  and  _468
REMARK  180  A    between atoms: _468  and  _469
REMARK  181  A    between atoms: _469  and  _470
REMARK  182  A    between atoms: _473  and  _475
REMARK  183  A    between atoms: _475  and  _476
REMARK  184  A    between atoms: _475  and  _478
REMARK  185  A    between atoms: _478  and  _479
REMARK  186  A    between atoms: _484  and  _486
REMARK  187  A    between atoms: _486  and  _487
REMARK  188  A    between atoms: _489  and  _491
REMARK  189  A    between atoms: _491  and  _492
REMARK  190  A    between atoms: _491  and  _494
REMARK  191  A    between atoms: _494  and  _495
REMARK  192  A    between atoms: _495  and  _496
REMARK  193  A    between atoms: _498  and  _500
REMARK  194  A    between atoms: _500  and  _501
REMARK  195  A    between atoms: _503  and  _505
REMARK  196  A    between atoms: _505  and  _506
REMARK  197  A    between atoms: _505  and  _508
REMARK  198  A    between atoms: _508  and  _509
REMARK  199  A    between atoms: _519  and  _521
REMARK  200  A    between atoms: _521  and  _522
REMARK  201  A    between atoms: _525  and  _527
REMARK  202  A    between atoms: _527  and  _528
REMARK  203  A    between atoms: _527  and  _530
REMARK  204  A    between atoms: _530  and  _531
REMARK  205  A    between atoms: _534  and  _536
REMARK  206  A    between atoms: _536  and  _537
REMARK  207  A    between atoms: _536  and  _539
REMARK  208  A    between atoms: _539  and  _540
REMARK  209  A    between atoms: _545  and  _547
REMARK  210  A    between atoms: _547  and  _548
REMARK  211  A    between atoms: _547  and  _550
REMARK  212  A    between atoms: _550  and  _551
REMARK  213  A    between atoms: _557  and  _559
REMARK  214  A    between atoms: _559  and  _560
REMARK  215  A    between atoms: _559  and  _562
REMARK  216  A    between atoms: _562  and  _563
REMARK  217  A    between atoms: _563  and  _564
REMARK  218  A    between atoms: _567  and  _569
REMARK  219  A    between atoms: _569  and  _570
REMARK  220  A    between atoms: _569  and  _572
REMARK  221  A    between atoms: _572  and  _573
REMARK  222  A    between atoms: _583  and  _585
REMARK  223  A    between atoms: _585  and  _586
REMARK  224  A    between atoms: _585  and  _588
REMARK  225  A    between atoms: _588  and  _589
REMARK  226  A    between atoms: _592  and  _594
REMARK  227  A    between atoms: _594  and  _595
REMARK  228  A    between atoms: _594  and  _597
REMARK  229  A    between atoms: _597  and  _598
REMARK  230  A    between atoms: _600  and  _602
REMARK  231  A    between atoms: _602  and  _603
REMARK  232  A    between atoms: _605  and  _607
REMARK  233  A    between atoms: _607  and  _608
REMARK  234  A    between atoms: _607  and  _610
REMARK  235  A    between atoms: _610  and  _611
REMARK  236  A    between atoms: _614  and  _616
REMARK  237  A    between atoms: _616  and  _617
REMARK  238  A    between atoms: _616  and  _619
REMARK  239  A    between atoms: _619  and  _620
REMARK  240  A    between atoms: _620  and  _621
REMARK  241  A    between atoms: _626  and  _628
REMARK  242  A    between atoms: _628  and  _629
REMARK  243  A    between atoms: _628  and  _631
REMARK  244  A    between atoms: _631  and  _632
REMARK                            x       y       z     vdW  Elec       q    Type
REMARK                         _______ _______ _______ _____ _____    ______ ____
ROOT
ATOM      1  C   TYR A   2       0.478  24.269  22.262  0.00  0.00    +0.241 C 
ATOM      2  O   TYR A   2       0.204  24.153  23.454  0.00  0.00    -0.273 OA
ATOM      3  N   TYR A   3      -0.416  24.600  21.338  0.00  0.00    -0.297 N 
ATOM      4  H   TYR A   3      -0.118  24.681  20.345  0.00  0.00    +0.150 HD
ENDROOT
BRANCH   3   5
ATOM      5  CA  TYR A   3      -1.800  24.851  21.688  0.00  0.00    +0.153 C 
BRANCH   5   6
ATOM      6  C   TYR A   3      -2.740  24.000  20.852  0.00  0.00    +0.241 C 
ATOM      7  O   TYR A   3      -3.536  23.229  21.400  0.00  0.00    -0.273 OA
ATOM      8  N   ILE A   4      -2.638  24.126  19.533  0.00  0.00    -0.298 N 
ATOM      9  H   ILE A   4      -1.863  24.693  19.134  0.00  0.00    +0.150 HD
BRANCH   8  10
ATOM     10  CA  ILE A   4      -3.593  23.483  18.632  0.00  0.00    +0.137 C 
BRANCH  10  11
ATOM     11  C   ILE A   4      -2.964  22.855  17.395  0.00  0.00    +0.227 C 
ATOM     12  O   ILE A   4      -1.782  23.043  17.091  0.00  0.00    -0.286 OA
ENDBRANCH  10  11
BRANCH  10  13
ATOM     13  CB  ILE A   4      -4.660  24.478  18.126  0.00  0.00    +0.026 C 
ATOM     14  CG2 ILE A   4      -5.478  25.054  19.277  0.00  0.00    +0.002 C 
BRANCH  13  15
ATOM     15  CG1 ILE A   4      -4.002  25.593  17.304  0.00  0.00    +0.002 C 
ATOM     16  CD1 ILE A   4      -4.998  26.451  16.524  0.00  0.00    +0.000 C 
ENDBRANCH  13  15
ENDBRANCH  10  13
ENDBRANCH   8  10
ENDBRANCH   5   6
BRANCH   5  17
ATOM     17  CB  TYR A   3      -2.127  26.340  21.529  0.00  0.00    +0.055 C 
BRANCH  17  18
ATOM     18  CG  TYR A   3      -1.515  27.164  22.636  0.00  0.00    -0.020 A 
ATOM     19  CD2 TYR A   3      -2.146  27.269  23.868  0.00  0.00    -0.001 A 
ATOM     20  CE2 TYR A   3      -1.586  27.997  24.900  0.00  0.00    +0.036 A 
ATOM     21  CZ  TYR A   3      -0.377  28.626  24.710  0.00  0.00    +0.134 A 
ATOM     22  CE1 TYR A   3       0.284  28.526  23.497  0.00  0.00    +0.036 A 
ATOM     23  CD1 TYR A   3      -0.289  27.795  22.468  0.00  0.00    -0.001 A 
BRANCH  21  24
ATOM     24  OH  TYR A   3       0.173  29.350  25.746  0.00  0.00    -0.506 OA
ATOM     25  HH  TYR A   3       1.052  28.964  25.987  0.00  0.00    +0.292 HD
ENDBRANCH  21  24
ENDBRANCH  17  18
ENDBRANCH   5  17
ENDBRANCH   3   5
BRANCH   1  26
ATOM     26  CA  TYR A   2       1.889  24.022  21.760  0.00  0.00    +0.153 C 
BRANCH  26  28
ATOM     27  C   ASN A   1       3.766  25.538  21.943  0.00  0.00    +0.239 C 
ATOM     28  N   TYR A   2       2.859  24.774  22.545  0.00  0.00    -0.297 N 
ATOM     29  H   TYR A   2       2.842  24.713  23.583  0.00  0.00    +0.150 HD
ATOM     30  O   ASN A   1       3.807  25.697  20.722  0.00  0.00    -0.274 OA
BRANCH  27  31
ATOM     31  CA  ASN A   1       4.783  26.229  22.834  0.00  0.00    +0.154 C 
BRANCH  31  32
ATOM     32  N   ASN A   1       6.125  25.901  22.372  0.00  0.00    -0.238 NA
ATOM     33  H   ASN A   1       6.489  26.376  21.522  0.00  0.00    +0.142 HD
ENDBRANCH  31  32
BRANCH  31  34
ATOM     34  CB  ASN A   1       4.548  27.745  22.814  0.00  0.00    +0.111 C 
BRANCH  34  35
ATOM     35  CG  ASN A   1       5.387  28.480  23.834  0.00  0.00    +0.221 C 
ATOM     36  OD1 ASN A   1       6.099  27.867  24.629  0.00  0.00    -0.275 OA
ATOM     37  ND2 ASN A   1       5.314  29.808  23.813  0.00  0.00    -0.329 N 
ATOM     38 HD21 ASN A   1       5.873  30.370  24.486  0.00  0.00    +0.145 HD
ATOM     39 HD22 ASN A   1       4.698  30.284  23.123  0.00  0.00    +0.145 HD
ENDBRANCH  34  35
ENDBRANCH  31  34
ENDBRANCH  27  31
ENDBRANCH  26  28
BRANCH  26  40
ATOM     40  CB  TYR A   2       2.188  22.519  21.786  0.00  0.00    +0.055 C 
BRANCH  40  41
ATOM     41  CG  TYR A   2       1.156  21.751  20.994  0.00  0.00    -0.020 A 
ATOM     42  CD2 TYR A   2       0.088  21.129  21.630  0.00  0.00    -0.001 A 
ATOM     43  CE2 TYR A   2      -0.877  20.447  20.905  0.00  0.00    +0.036 A 
ATOM     44  CZ  TYR A   2      -0.784  20.391  19.528  0.00  0.00    +0.134 A 
ATOM     45  CE1 TYR A   2       0.262  21.013  18.872  0.00  0.00    +0.036 A 
ATOM     46  CD1 TYR A   2       1.223  21.694  19.608  0.00  0.00    -0.001 A 
BRANCH  44  47
ATOM     47  OH  TYR A   2      -1.745  19.710  18.805  0.00  0.00    -0.506 OA
ATOM     48  HH  TYR A   2      -1.757  18.761  19.087  0.00  0.00    +0.292 HD
ENDBRANCH  44  47
ENDBRANCH  40  41
ENDBRANCH  26  40
ENDBRANCH   1  26
TORSDOF 18
REMARK  Name = ../refined-set-2016/3wq6/3wq6_pocket.pdb
REMARK  244 active torsions:
REMARK  status: ('A' for Active; 'I' for Inactive)
REMARK    1  A    between atoms: _1  and  _3
REMARK    2  A    between atoms: _3  and  _4
REMARK    3  A    between atoms: _7  and  _9
REMARK    4  A    between atoms: _9  and  _10
REMARK    5  A    between atoms: _9  and  _12
REMARK    6  A    between atoms: _12  and  _13
REMARK    7  A    between atoms: _15  and  _17
REMARK    8  A    between atoms: _17  and  _18
REMARK    9  A    between atoms: _17  and  _20
REMARK   10  A    between atoms: _20  and  _21
REMARK   11  A    between atoms: _23  and  _25
REMARK   12  A    between atoms: _25  and  _26
REMARK   13  A    between atoms: _29  and  _31
REMARK   14  A    between atoms: _31  and  _32
REMARK   15  A    between atoms: _31  and  _34
REMARK   16  A    between atoms: _34  and  _35
REMARK   17  A    between atoms: _40  and  _41
REMARK   18  A    between atoms: _43  and  _45
REMARK   19  A    between atoms: _45  and  _46
REMARK   20  A    between atoms: _45  and  _48
REMARK   21  A    between atoms: _48  and  _49
REMARK   22  A    between atoms: _49  and  _50
REMARK   23  A    between atoms: _55  and  _57
REMARK   24  A    between atoms: _57  and  _58
REMARK   25  A    between atoms: _57  and  _60
REMARK   26  A    between atoms: _60  and  _61
REMARK   27  A    between atoms: _67  and  _69
REMARK   28  A    between atoms: _69  and  _70
REMARK   29  A    between atoms: _69  and  _72
REMARK   30  A    between atoms: _72  and  _73
REMARK   31  A    between atoms: _83  and  _85
REMARK   32  A    between atoms: _85  and  _86
REMARK   33  A    between atoms: _85  and  _88
REMARK   34  A    between atoms: _88  and  _89
REMARK   35  A    between atoms: _91  and  _93
REMARK   36  A    between atoms: _93  and  _94
REMARK   37  A    between atoms: _93  and  _96
REMARK   38  A    between atoms: _96  and  _97
REMARK   39  A    between atoms: _97  and  _98
REMARK   40  A    between atoms: _98  and  _99
REMARK   41  A    between atoms: _108  and  _110
REMARK   42  A    between atoms: _110  and  _111
REMARK   43  A    between atoms: _110  and  _113
REMARK   44  A    between atoms: _113  and  _114
REMARK   45  A    between atoms: _117  and  _119
REMARK   46  A    between atoms: _119  and  _120
REMARK   47  A    between atoms: _119  and  _122
REMARK   48  A    between atoms: _122  and  _123
REMARK   49  A    between atoms: _128  and  _130
REMARK   50  A    between atoms: _130  and  _131
REMARK   51  A    between atoms: _130  and  _133
REMARK   52  A    between atoms: _133  and  _134
REMARK   53  A    between atoms: _144  and  _146
REMARK   54  A    between atoms: _146  and  _147
REMARK   55  A    between atoms: _146  and  _149
REMARK   56  A    between atoms: _149  and  _150
REMARK   57  A    between atoms: _155  and  _157
REMARK   58  A    between atoms: _157  and  _158
REMARK   59  A    between atoms: _157  and  _160
REMARK   60  A    between atoms: _160  and  _161
REMARK   61  A    between atoms: _161  and  _162
REMARK   62  A    between atoms: _165  and  _167
REMARK   63  A    between atoms: _167  and  _168
REMARK   64  A    between atoms: _167  and  _170
REMARK   65  A    between atoms: _170  and  _171
REMARK   66  A    between atoms: _181  and  _183
REMARK   67  A    between atoms: _183  and  _184
REMARK   68  A    between atoms: _183  and  _186
REMARK   69  A    between atoms: _186  and  _187
REMARK   70  A    between atoms: _189  and  _191
REMARK   71  A    between atoms: _191  and  _192
REMARK   72  A    between atoms: _191  and  _194
REMARK   73  A    between atoms: _194  and  _195
REMARK   74  A    between atoms: _200  and  _201
REMARK   75  A    between atoms: _203  and  _205
REMARK   76  A    between atoms: _205  and  _206
REMARK   77  A    between atoms: _205  and  _208
REMARK   78  A    between atoms: _208  and  _209
REMARK   79  A    between atoms: _211  and  _213
REMARK   80  A    between atoms: _213  and  _214
REMARK   81  A    between atoms: _213  and  _216
REMARK   82  A    between atoms: _216  and  _217
REMARK   83  A    between atoms: _222  and  _223
REMARK   84  A    between atoms: _225  and  _227
REMARK   85  A    between atoms: _227  and  _228
REMARK   86  A    between atoms: _230  and  _232
REMARK   87  A    between atoms: _232  and  _233
REMARK   88  A    between atoms: _235  and  _237
REMARK   89  A    between atoms: _237  and  _238
REMARK   90  A    between atoms: _237  and  _240
REMARK   91  A    between atoms: _240  and  _241
REMARK   92  A    between atoms: _246  and  _247
REMARK   93  A    between atoms: _249  and  _251
REMARK   94  A    between atoms: _251  and  _252
REMARK   95  A    between atoms: _251  and  _254
REMARK   96  A    between atoms: _254  and  _255
REMARK   97  A    between atoms: _258  and  _260
REMARK   98  A    between atoms: _260  and  _261
REMARK   99  A    between atoms: _264  and  _266
REMARK  100  A    between atoms: _266  and  _267
REMARK  101  A    between atoms: _269  and  _271
REMARK  102  A    between atoms: _271  and  _272
REMARK  103  A    between atoms: _271  and  _274
REMARK  104  A    between atoms: _274  and  _275
REMARK  105  A    between atoms: _278  and  _280
REMARK  106  A    between atoms: _280  and  _281
REMARK  107  A    between atoms: _280  and  _283
REMARK  108  A    between atoms: _283  and  _284
REMARK  109  A    between atoms: _287  and  _289
REMARK  110  A    between atoms: _289  and  _290
REMARK  111  A    between atoms: _289  and  _292
REMARK  112  A    between atoms: _292  and  _293
REMARK  113  A    between atoms: _296  and  _298
REMARK  114  A    between atoms: _298  and  _299
REMARK  115  A    between atoms: _298  and  _301
REMARK  116  A    between atoms: _304  and  _306
REMARK  117  A    between atoms: _306  and  _307
REMARK  118  A    between atoms: _306  and  _309
REMARK  119  A    between atoms: _309  and  _310
REMARK  120  A    between atoms: _313  and  _315
REMARK  121  A    between atoms: _315  and  _316
REMARK  122  A    between atoms: _315  and  _318
REMARK  123  A    between atoms: _318  and  _319
REMARK  124  A    between atoms: _324  and  _325
REMARK  125  A    between atoms: _327  and  _329
REMARK  126  A    between atoms: _329  and  _330
REMARK  127  A    between atoms: _329  and  _332
REMARK  128  A    between atoms: _332  and  _333
REMARK  129  A    between atoms: _333  and  _334
REMARK  130  A    between atoms: _336  and  _338
REMARK  131  A    between atoms: _338  and  _339
REMARK  132  A    between atoms: _338  and  _341
REMARK  133  A    between atoms: _341  and  _342
REMARK  134  A    between atoms: _347  and  _349
REMARK  135  A    between atoms: _349  and  _350
REMARK  136  A    between atoms: _349  and  _352
REMARK  137  A    between atoms: _352  and  _353
REMARK  138  A    between atoms: _358  and  _359
REMARK  139  A    between atoms: _361  and  _363
REMARK  140  A    between atoms: _363  and  _364
REMARK  141  A    between atoms: _363  and  _366
REMARK  142  A    between atoms: _366  and  _367
REMARK  143  A    between atoms: _372  and  _373
REMARK  144  A    between atoms: _375  and  _377
REMARK  145  A    between atoms: _377  and  _378
REMARK  146  A    between atoms: _377  and  _380
REMARK  147  A    between atoms: _380  and  _381
REMARK  148  A    between atoms: _384  and  _386
REMARK  149  A    between atoms: _386  and  _387
REMARK  150  A    between atoms: _386  and  _389
REMARK  151  A    between atoms: _389  and  _390
REMARK  152  A    between atoms: _395  and  _397
REMARK  153  A    between atoms: _397  and  _398
REMARK  154  A    between atoms: _397  and  _400
REMARK  155  A    between atoms: _400  and  _401
REMARK  156  A    between atoms: _401  and  _402
REMARK  157  A    between atoms: _407  and  _409
REMARK  158  A    between atoms: _409  and  _410
REMARK  159  A    between atoms: _409  and  _412
REMARK  160  A    between atoms: _412  and  _413
REMARK  161  A    between atoms: _416  and  _418
REMARK  162  A    between atoms: _418  and  _419
REMARK  163  A    between atoms: _421  and  _423
REMARK  164  A    between atoms: _423  and  _424
REMARK  165  A    between atoms: _423  and  _426
REMARK  166  A    between atoms: _430  and  _431
REMARK  167  A    between atoms: _436  and  _438
REMARK  168  A    between atoms: _438  and  _439
REMARK  169  A    between atoms: _442  and  _444
REMARK  170  A    between atoms: _444  and  _445
REMARK  171  A    between atoms: _444  and  _447
REMARK  172  A    between atoms: _447  and  _448
REMARK  173  A    between atoms: _454  and  _456
REMARK  174  A    between atoms: _456  and  _457
REMARK  175  A    between atoms: _456  and  _459
REMARK  176  A    between atoms: _459  and  _460
REMARK  177  A    between atoms: _463  and  _465
REMARK  178  A    between atoms: _465  and  _466
REMARK  179  A    between atoms: _465  and  _468
REMARK  180  A    between atoms: _468  and  _469
REMARK  181  A    between atoms: _469  and  _470
REMARK  182  A    between atoms: _473  and  _475
REMARK  183  A    between atoms: _475  and  _476
REMARK  184  A    between atoms: _475  and  _478
REMARK  185  A    between atoms: _478  and  _479
REMARK  186  A    between atoms: _484  and  _486
REMARK  187  A    between atoms: _486  and  _487
REMARK  188  A    between atoms: _489  and  _491
REMARK  189  A    between atoms: _491  and  _492
REMARK  190  A    between atoms: _491  and  _494
REMARK  191  A    between atoms: _494  and  _495
REMARK  192  A    between atoms: _495  and  _496
REMARK  193  A    between atoms: _498  and  _500
REMARK  194  A    between atoms: _500  and  _501
REMARK  195  A    between atoms: _503  and  _505
REMARK  196  A    between atoms: _505  and  _506
REMARK  197  A    between atoms: _505  and  _508
REMARK  198  A    between atoms: _508  and  _509
REMARK  199  A    between atoms: _519  and  _521
REMARK  200  A    between atoms: _521  and  _522
REMARK  201  A    between atoms: _525  and  _527
REMARK  202  A    between atoms: _527  and  _528
REMARK  203  A    between atoms: _527  and  _530
REMARK  204  A    between atoms: _530  and  _531
REMARK  205  A    between atoms: _534  and  _536
REMARK  206  A    between atoms: _536  and  _537
REMARK  207  A    between atoms: _536  and  _539
REMARK  208  A    between atoms: _539  and  _540
REMARK  209  A    between atoms: _545  and  _547
REMARK  210  A    between atoms: _547  and  _548
REMARK  211  A    between atoms: _547  and  _550
REMARK  212  A    between atoms: _550  and  _551
REMARK  213  A    between atoms: _557  and  _559
REMARK  214  A    between atoms: _559  and  _560
REMARK  215  A    between atoms: _559  and  _562
REMARK  216  A    between atoms: _562  and  _563
REMARK  217  A    between atoms: _563  and  _564
REMARK  218  A    between atoms: _567  and  _569
REMARK  219  A    between atoms: _569  and  _570
REMARK  220  A    between atoms: _569  and  _572
REMARK  221  A    between atoms: _572  and  _573
REMARK  222  A    between atoms: _583  and  _585
REMARK  223  A    between atoms: _585  and  _586
REMARK  224  A    between atoms: _585  and  _588
REMARK  225  A    between atoms: _588  and  _589
REMARK  226  A    between atoms: _592  and  _594
REMARK  227  A    between atoms: _594  and  _595
REMARK  228  A    between atoms: _594  and  _597
REMARK  229  A    between atoms: _597  and  _598
REMARK  230  A    between atoms: _600  and  _602
REMARK  231  A    between atoms: _602  and  _603
REMARK  232  A    between atoms: _605  and  _607
REMARK  233  A    between atoms: _607  and  _608
REMARK  234  A    between atoms: _607  and  _610
REMARK  235  A    between atoms: _610  and  _611
REMARK  236  A    between atoms: _614  and  _616
REMARK  237  A    between atoms: _616  and  _617
REMARK  238  A    between atoms: _616  and  _619
REMARK  239  A    between atoms: _619  and  _620
REMARK  240  A    between atoms: _620  and  _621
REMARK  241  A    between atoms: _626  and  _628
REMARK  242  A    between atoms: _628  and  _629
REMARK  243  A    between atoms: _628  and  _631
REMARK  244  A    between atoms: _631  and  _632
REMARK                            x       y       z     vdW  Elec       q    Type
REMARK                         _______ _______ _______ _____ _____    ______ ____
ROOT
ATOM      1  CB  ASN A   1      -4.998  24.317  11.702  0.00  0.00    +0.110 C 
ENDROOT
BRANCH   1   2
ATOM      2  CG  ASN A   1      -5.515  25.313  12.714  0.00  0.00    +0.221 C 
ATOM      3  OD1 ASN A   1      -6.567  25.115  13.327  0.00  0.00    -0.275 OA
ATOM      4  ND2 ASN A   1      -4.780  26.404  12.884  0.00  0.00    -0.329 N 
ATOM      5 HD21 ASN A   1      -5.084  27.136  13.557  0.00  0.00    +0.145 HD
ATOM      6 HD22 ASN A   1      -3.900  26.527  12.344  0.00  0.00    +0.145 HD
ENDBRANCH   1   2
BRANCH   1   7
ATOM      7  CA  ASN A   1      -5.197  22.862  12.138  0.00  0.00    +0.142 C 
BRANCH   7   8
ATOM      8  N   ASN A   1      -4.220  22.460  13.145  0.00  0.00    -0.239 NA
ATOM      9  H   ASN A   1      -3.228  22.330  12.860  0.00  0.00    +0.142 HD
ENDBRANCH   7   8
BRANCH   7  10
ATOM     10  C   ASN A   1      -5.094  21.987  10.909  0.00  0.00    +0.225 C 
ATOM     11  O   ASN A   1      -4.014  21.498  10.588  0.00  0.00    -0.287 OA
ENDBRANCH   7  10
ENDBRANCH   1   7
TORSDOF 4
REMARK  Name = ../refined-set-2016/3wq6/3wq6_pocket.pdb
REMARK  244 active torsions:
REMARK  status: ('A' for Active; 'I' for Inactive)
REMARK    1  A    between atoms: _1  and  _3
REMARK    2  A    between atoms: _3  and  _4
REMARK    3  A    between atoms: _7  and  _9
REMARK    4  A    between atoms: _9  and  _10
REMARK    5  A    between atoms: _9  and  _12
REMARK    6  A    between atoms: _12  and  _13
REMARK    7  A    between atoms: _15  and  _17
REMARK    8  A    between atoms: _17  and  _18
REMARK    9  A    between atoms: _17  and  _20
REMARK   10  A    between atoms: _20  and  _21
REMARK   11  A    between atoms: _23  and  _25
REMARK   12  A    between atoms: _25  and  _26
REMARK   13  A    between atoms: _29  and  _31
REMARK   14  A    between atoms: _31  and  _32
REMARK   15  A    between atoms: _31  and  _34
REMARK   16  A    between atoms: _34  and  _35
REMARK   17  A    between atoms: _40  and  _41
REMARK   18  A    between atoms: _43  and  _45
REMARK   19  A    between atoms: _45  and  _46
REMARK   20  A    between atoms: _45  and  _48
REMARK   21  A    between atoms: _48  and  _49
REMARK   22  A    between atoms: _49  and  _50
REMARK   23  A    between atoms: _55  and  _57
REMARK   24  A    between atoms: _57  and  _58
REMARK   25  A    between atoms: _57  and  _60
REMARK   26  A    between atoms: _60  and  _61
REMARK   27  A    between atoms: _67  and  _69
REMARK   28  A    between atoms: _69  and  _70
REMARK   29  A    between atoms: _69  and  _72
REMARK   30  A    between atoms: _72  and  _73
REMARK   31  A    between atoms: _83  and  _85
REMARK   32  A    between atoms: _85  and  _86
REMARK   33  A    between atoms: _85  and  _88
REMARK   34  A    between atoms: _88  and  _89
REMARK   35  A    between atoms: _91  and  _93
REMARK   36  A    between atoms: _93  and  _94
REMARK   37  A    between atoms: _93  and  _96
REMARK   38  A    between atoms: _96  and  _97
REMARK   39  A    between atoms: _97  and  _98
REMARK   40  A    between atoms: _98  and  _99
REMARK   41  A    between atoms: _108  and  _110
REMARK   42  A    between atoms: _110  and  _111
REMARK   43  A    between atoms: _110  and  _113
REMARK   44  A    between atoms: _113  and  _114
REMARK   45  A    between atoms: _117  and  _119
REMARK   46  A    between atoms: _119  and  _120
REMARK   47  A    between atoms: _119  and  _122
REMARK   48  A    between atoms: _122  and  _123
REMARK   49  A    between atoms: _128  and  _130
REMARK   50  A    between atoms: _130  and  _131
REMARK   51  A    between atoms: _130  and  _133
REMARK   52  A    between atoms: _133  and  _134
REMARK   53  A    between atoms: _144  and  _146
REMARK   54  A    between atoms: _146  and  _147
REMARK   55  A    between atoms: _146  and  _149
REMARK   56  A    between atoms: _149  and  _150
REMARK   57  A    between atoms: _155  and  _157
REMARK   58  A    between atoms: _157  and  _158
REMARK   59  A    between atoms: _157  and  _160
REMARK   60  A    between atoms: _160  and  _161
REMARK   61  A    between atoms: _161  and  _162
REMARK   62  A    between atoms: _165  and  _167
REMARK   63  A    between atoms: _167  and  _168
REMARK   64  A    between atoms: _167  and  _170
REMARK   65  A    between atoms: _170  and  _171
REMARK   66  A    between atoms: _181  and  _183
REMARK   67  A    between atoms: _183  and  _184
REMARK   68  A    between atoms: _183  and  _186
REMARK   69  A    between atoms: _186  and  _187
REMARK   70  A    between atoms: _189  and  _191
REMARK   71  A    between atoms: _191  and  _192
REMARK   72  A    between atoms: _191  and  _194
REMARK   73  A    between atoms: _194  and  _195
REMARK   74  A    between atoms: _200  and  _201
REMARK   75  A    between atoms: _203  and  _205
REMARK   76  A    between atoms: _205  and  _206
REMARK   77  A    between atoms: _205  and  _208
REMARK   78  A    between atoms: _208  and  _209
REMARK   79  A    between atoms: _211  and  _213
REMARK   80  A    between atoms: _213  and  _214
REMARK   81  A    between atoms: _213  and  _216
REMARK   82  A    between atoms: _216  and  _217
REMARK   83  A    between atoms: _222  and  _223
REMARK   84  A    between atoms: _225  and  _227
REMARK   85  A    between atoms: _227  and  _228
REMARK   86  A    between atoms: _230  and  _232
REMARK   87  A    between atoms: _232  and  _233
REMARK   88  A    between atoms: _235  and  _237
REMARK   89  A    between atoms: _237  and  _238
REMARK   90  A    between atoms: _237  and  _240
REMARK   91  A    between atoms: _240  and  _241
REMARK   92  A    between atoms: _246  and  _247
REMARK   93  A    between atoms: _249  and  _251
REMARK   94  A    between atoms: _251  and  _252
REMARK   95  A    between atoms: _251  and  _254
REMARK   96  A    between atoms: _254  and  _255
REMARK   97  A    between atoms: _258  and  _260
REMARK   98  A    between atoms: _260  and  _261
REMARK   99  A    between atoms: _264  and  _266
REMARK  100  A    between atoms: _266  and  _267
REMARK  101  A    between atoms: _269  and  _271
REMARK  102  A    between atoms: _271  and  _272
REMARK  103  A    between atoms: _271  and  _274
REMARK  104  A    between atoms: _274  and  _275
REMARK  105  A    between atoms: _278  and  _280
REMARK  106  A    between atoms: _280  and  _281
REMARK  107  A    between atoms: _280  and  _283
REMARK  108  A    between atoms: _283  and  _284
REMARK  109  A    between atoms: _287  and  _289
REMARK  110  A    between atoms: _289  and  _290
REMARK  111  A    between atoms: _289  and  _292
REMARK  112  A    between atoms: _292  and  _293
REMARK  113  A    between atoms: _296  and  _298
REMARK  114  A    between atoms: _298  and  _299
REMARK  115  A    between atoms: _298  and  _301
REMARK  116  A    between atoms: _304  and  _306
REMARK  117  A    between atoms: _306  and  _307
REMARK  118  A    between atoms: _306  and  _309
REMARK  119  A    between atoms: _309  and  _310
REMARK  120  A    between atoms: _313  and  _315
REMARK  121  A    between atoms: _315  and  _316
REMARK  122  A    between atoms: _315  and  _318
REMARK  123  A    between atoms: _318  and  _319
REMARK  124  A    between atoms: _324  and  _325
REMARK  125  A    between atoms: _327  and  _329
REMARK  126  A    between atoms: _329  and  _330
REMARK  127  A    between atoms: _329  and  _332
REMARK  128  A    between atoms: _332  and  _333
REMARK  129  A    between atoms: _333  and  _334
REMARK  130  A    between atoms: _336  and  _338
REMARK  131  A    between atoms: _338  and  _339
REMARK  132  A    between atoms: _338  and  _341
REMARK  133  A    between atoms: _341  and  _342
REMARK  134  A    between atoms: _347  and  _349
REMARK  135  A    between atoms: _349  and  _350
REMARK  136  A    between atoms: _349  and  _352
REMARK  137  A    between atoms: _352  and  _353
REMARK  138  A    between atoms: _358  and  _359
REMARK  139  A    between atoms: _361  and  _363
REMARK  140  A    between atoms: _363  and  _364
REMARK  141  A    between atoms: _363  and  _366
REMARK  142  A    between atoms: _366  and  _367
REMARK  143  A    between atoms: _372  and  _373
REMARK  144  A    between atoms: _375  and  _377
REMARK  145  A    between atoms: _377  and  _378
REMARK  146  A    between atoms: _377  and  _380
REMARK  147  A    between atoms: _380  and  _381
REMARK  148  A    between atoms: _384  and  _386
REMARK  149  A    between atoms: _386  and  _387
REMARK  150  A    between atoms: _386  and  _389
REMARK  151  A    between atoms: _389  and  _390
REMARK  152  A    between atoms: _395  and  _397
REMARK  153  A    between atoms: _397  and  _398
REMARK  154  A    between atoms: _397  and  _400
REMARK  155  A    between atoms: _400  and  _401
REMARK  156  A    between atoms: _401  and  _402
REMARK  157  A    between atoms: _407  and  _409
REMARK  158  A    between atoms: _409  and  _410
REMARK  159  A    between atoms: _409  and  _412
REMARK  160  A    between atoms: _412  and  _413
REMARK  161  A    between atoms: _416  and  _418
REMARK  162  A    between atoms: _418  and  _419
REMARK  163  A    between atoms: _421  and  _423
REMARK  164  A    between atoms: _423  and  _424
REMARK  165  A    between atoms: _423  and  _426
REMARK  166  A    between atoms: _430  and  _431
REMARK  167  A    between atoms: _436  and  _438
REMARK  168  A    between atoms: _438  and  _439
REMARK  169  A    between atoms: _442  and  _444
REMARK  170  A    between atoms: _444  and  _445
REMARK  171  A    between atoms: _444  and  _447
REMARK  172  A    between atoms: _447  and  _448
REMARK  173  A    between atoms: _454  and  _456
REMARK  174  A    between atoms: _456  and  _457
REMARK  175  A    between atoms: _456  and  _459
REMARK  176  A    between atoms: _459  and  _460
REMARK  177  A    between atoms: _463  and  _465
REMARK  178  A    between atoms: _465  and  _466
REMARK  179  A    between atoms: _465  and  _468
REMARK  180  A    between atoms: _468  and  _469
REMARK  181  A    between atoms: _469  and  _470
REMARK  182  A    between atoms: _473  and  _475
REMARK  183  A    between atoms: _475  and  _476
REMARK  184  A    between atoms: _475  and  _478
REMARK  185  A    between atoms: _478  and  _479
REMARK  186  A    between atoms: _484  and  _486
REMARK  187  A    between atoms: _486  and  _487
REMARK  188  A    between atoms: _489  and  _491
REMARK  189  A    between atoms: _491  and  _492
REMARK  190  A    between atoms: _491  and  _494
REMARK  191  A    between atoms: _494  and  _495
REMARK  192  A    between atoms: _495  and  _496
REMARK  193  A    between atoms: _498  and  _500
REMARK  194  A    between atoms: _500  and  _501
REMARK  195  A    between atoms: _503  and  _505
REMARK  196  A    between atoms: _505  and  _506
REMARK  197  A    between atoms: _505  and  _508
REMARK  198  A    between atoms: _508  and  _509
REMARK  199  A    between atoms: _519  and  _521
REMARK  200  A    between atoms: _521  and  _522
REMARK  201  A    between atoms: _525  and  _527
REMARK  202  A    between atoms: _527  and  _528
REMARK  203  A    between atoms: _527  and  _530
REMARK  204  A    between atoms: _530  and  _531
REMARK  205  A    between atoms: _534  and  _536
REMARK  206  A    between atoms: _536  and  _537
REMARK  207  A    between atoms: _536  and  _539
REMARK  208  A    between atoms: _539  and  _540
REMARK  209  A    between atoms: _545  and  _547
REMARK  210  A    between atoms: _547  and  _548
REMARK  211  A    between atoms: _547  and  _550
REMARK  212  A    between atoms: _550  and  _551
REMARK  213  A    between atoms: _557  and  _559
REMARK  214  A    between atoms: _559  and  _560
REMARK  215  A    between atoms: _559  and  _562
REMARK  216  A    between atoms: _562  and  _563
REMARK  217  A    between atoms: _563  and  _564
REMARK  218  A    between atoms: _567  and  _569
REMARK  219  A    between atoms: _569  and  _570
REMARK  220  A    between atoms: _569  and  _572
REMARK  221  A    between atoms: _572  and  _573
REMARK  222  A    between atoms: _583  and  _585
REMARK  223  A    between atoms: _585  and  _586
REMARK  224  A    between atoms: _585  and  _588
REMARK  225  A    between atoms: _588  and  _589
REMARK  226  A    between atoms: _592  and  _594
REMARK  227  A    between atoms: _594  and  _595
REMARK  228  A    between atoms: _594  and  _597
REMARK  229  A    between atoms: _597  and  _598
REMARK  230  A    between atoms: _600  and  _602
REMARK  231  A    between atoms: _602  and  _603
REMARK  232  A    between atoms: _605  and  _607
REMARK  233  A    between atoms: _607  and  _608
REMARK  234  A    between atoms: _607  and  _610
REMARK  235  A    between atoms: _610  and  _611
REMARK  236  A    between atoms: _614  and  _616
REMARK  237  A    between atoms: _616  and  _617
REMARK  238  A    between atoms: _616  and  _619
REMARK  239  A    between atoms: _619  and  _620
REMARK  240  A    between atoms: _620  and  _621
REMARK  241  A    between atoms: _626  and  _628
REMARK  242  A    between atoms: _628  and  _629
REMARK  243  A    between atoms: _628  and  _631
REMARK  244  A    between atoms: _631  and  _632
REMARK                            x       y       z     vdW  Elec       q    Type
REMARK                         _______ _______ _______ _____ _____    ______ ____
ROOT
ATOM      1  CB  GLN A   1      -4.967  27.182   8.956  0.00  0.00    +0.035 C 
ENDROOT
BRANCH   1   2
ATOM      2  CA  GLN A   1      -5.914  26.753   7.837  0.00  0.00    +0.134 C 
BRANCH   2   3
ATOM      3  N   GLN A   1      -5.726  27.599   6.666  0.00  0.00    -0.239 NA
ATOM      4  H   GLN A   1      -5.563  28.619   6.786  0.00  0.00    +0.142 HD
ENDBRANCH   2   3
BRANCH   2   5
ATOM      5  C   GLN A   1      -7.356  26.784   8.314  0.00  0.00    +0.224 C 
ATOM      6  O   GLN A   1      -8.002  27.837   8.296  0.00  0.00    -0.287 OA
ENDBRANCH   2   5
ENDBRANCH   1   2
BRANCH   1   7
ATOM      7  CG  GLN A   1      -3.499  27.102   8.548  0.00  0.00    +0.087 C 
BRANCH   7   8
ATOM      8  CD  GLN A   1      -2.578  27.681   9.599  0.00  0.00    +0.219 C 
ATOM      9  NE2 GLN A   1      -2.843  27.348  10.852  0.00  0.00    -0.329 N 
ATOM     10 HE21 GLN A   1      -2.248  27.711  11.624  0.00  0.00    +0.145 HD
ATOM     11 HE22 GLN A   1      -3.647  26.723  11.065  0.00  0.00    +0.145 HD
ATOM     12  OE1 GLN A   1      -1.634  28.421   9.289  0.00  0.00    -0.275 OA
ENDBRANCH   7   8
ENDBRANCH   1   7
TORSDOF 5
REMARK  Name = ../refined-set-2016/3wq6/3wq6_pocket.pdb
REMARK  244 active torsions:
REMARK  status: ('A' for Active; 'I' for Inactive)
REMARK    1  A    between atoms: _1  and  _3
REMARK    2  A    between atoms: _3  and  _4
REMARK    3  A    between atoms: _7  and  _9
REMARK    4  A    between atoms: _9  and  _10
REMARK    5  A    between atoms: _9  and  _12
REMARK    6  A    between atoms: _12  and  _13
REMARK    7  A    between atoms: _15  and  _17
REMARK    8  A    between atoms: _17  and  _18
REMARK    9  A    between atoms: _17  and  _20
REMARK   10  A    between atoms: _20  and  _21
REMARK   11  A    between atoms: _23  and  _25
REMARK   12  A    between atoms: _25  and  _26
REMARK   13  A    between atoms: _29  and  _31
REMARK   14  A    between atoms: _31  and  _32
REMARK   15  A    between atoms: _31  and  _34
REMARK   16  A    between atoms: _34  and  _35
REMARK   17  A    between atoms: _40  and  _41
REMARK   18  A    between atoms: _43  and  _45
REMARK   19  A    between atoms: _45  and  _46
REMARK   20  A    between atoms: _45  and  _48
REMARK   21  A    between atoms: _48  and  _49
REMARK   22  A    between atoms: _49  and  _50
REMARK   23  A    between atoms: _55  and  _57
REMARK   24  A    between atoms: _57  and  _58
REMARK   25  A    between atoms: _57  and  _60
REMARK   26  A    between atoms: _60  and  _61
REMARK   27  A    between atoms: _67  and  _69
REMARK   28  A    between atoms: _69  and  _70
REMARK   29  A    between atoms: _69  and  _72
REMARK   30  A    between atoms: _72  and  _73
REMARK   31  A    between atoms: _83  and  _85
REMARK   32  A    between atoms: _85  and  _86
REMARK   33  A    between atoms: _85  and  _88
REMARK   34  A    between atoms: _88  and  _89
REMARK   35  A    between atoms: _91  and  _93
REMARK   36  A    between atoms: _93  and  _94
REMARK   37  A    between atoms: _93  and  _96
REMARK   38  A    between atoms: _96  and  _97
REMARK   39  A    between atoms: _97  and  _98
REMARK   40  A    between atoms: _98  and  _99
REMARK   41  A    between atoms: _108  and  _110
REMARK   42  A    between atoms: _110  and  _111
REMARK   43  A    between atoms: _110  and  _113
REMARK   44  A    between atoms: _113  and  _114
REMARK   45  A    between atoms: _117  and  _119
REMARK   46  A    between atoms: _119  and  _120
REMARK   47  A    between atoms: _119  and  _122
REMARK   48  A    between atoms: _122  and  _123
REMARK   49  A    between atoms: _128  and  _130
REMARK   50  A    between atoms: _130  and  _131
REMARK   51  A    between atoms: _130  and  _133
REMARK   52  A    between atoms: _133  and  _134
REMARK   53  A    between atoms: _144  and  _146
REMARK   54  A    between atoms: _146  and  _147
REMARK   55  A    between atoms: _146  and  _149
REMARK   56  A    between atoms: _149  and  _150
REMARK   57  A    between atoms: _155  and  _157
REMARK   58  A    between atoms: _157  and  _158
REMARK   59  A    between atoms: _157  and  _160
REMARK   60  A    between atoms: _160  and  _161
REMARK   61  A    between atoms: _161  and  _162
REMARK   62  A    between atoms: _165  and  _167
REMARK   63  A    between atoms: _167  and  _168
REMARK   64  A    between atoms: _167  and  _170
REMARK   65  A    between atoms: _170  and  _171
REMARK   66  A    between atoms: _181  and  _183
REMARK   67  A    between atoms: _183  and  _184
REMARK   68  A    between atoms: _183  and  _186
REMARK   69  A    between atoms: _186  and  _187
REMARK   70  A    between atoms: _189  and  _191
REMARK   71  A    between atoms: _191  and  _192
REMARK   72  A    between atoms: _191  and  _194
REMARK   73  A    between atoms: _194  and  _195
REMARK   74  A    between atoms: _200  and  _201
REMARK   75  A    between atoms: _203  and  _205
REMARK   76  A    between atoms: _205  and  _206
REMARK   77  A    between atoms: _205  and  _208
REMARK   78  A    between atoms: _208  and  _209
REMARK   79  A    between atoms: _211  and  _213
REMARK   80  A    between atoms: _213  and  _214
REMARK   81  A    between atoms: _213  and  _216
REMARK   82  A    between atoms: _216  and  _217
REMARK   83  A    between atoms: _222  and  _223
REMARK   84  A    between atoms: _225  and  _227
REMARK   85  A    between atoms: _227  and  _228
REMARK   86  A    between atoms: _230  and  _232
REMARK   87  A    between atoms: _232  and  _233
REMARK   88  A    between atoms: _235  and  _237
REMARK   89  A    between atoms: _237  and  _238
REMARK   90  A    between atoms: _237  and  _240
REMARK   91  A    between atoms: _240  and  _241
REMARK   92  A    between atoms: _246  and  _247
REMARK   93  A    between atoms: _249  and  _251
REMARK   94  A    between atoms: _251  and  _252
REMARK   95  A    between atoms: _251  and  _254
REMARK   96  A    between atoms: _254  and  _255
REMARK   97  A    between atoms: _258  and  _260
REMARK   98  A    between atoms: _260  and  _261
REMARK   99  A    between atoms: _264  and  _266
REMARK  100  A    between atoms: _266  and  _267
REMARK  101  A    between atoms: _269  and  _271
REMARK  102  A    between atoms: _271  and  _272
REMARK  103  A    between atoms: _271  and  _274
REMARK  104  A    between atoms: _274  and  _275
REMARK  105  A    between atoms: _278  and  _280
REMARK  106  A    between atoms: _280  and  _281
REMARK  107  A    between atoms: _280  and  _283
REMARK  108  A    between atoms: _283  and  _284
REMARK  109  A    between atoms: _287  and  _289
REMARK  110  A    between atoms: _289  and  _290
REMARK  111  A    between atoms: _289  and  _292
REMARK  112  A    between atoms: _292  and  _293
REMARK  113  A    between atoms: _296  and  _298
REMARK  114  A    between atoms: _298  and  _299
REMARK  115  A    between atoms: _298  and  _301
REMARK  116  A    between atoms: _304  and  _306
REMARK  117  A    between atoms: _306  and  _307
REMARK  118  A    between atoms: _306  and  _309
REMARK  119  A    between atoms: _309  and  _310
REMARK  120  A    between atoms: _313  and  _315
REMARK  121  A    between atoms: _315  and  _316
REMARK  122  A    between atoms: _315  and  _318
REMARK  123  A    between atoms: _318  and  _319
REMARK  124  A    between atoms: _324  and  _325
REMARK  125  A    between atoms: _327  and  _329
REMARK  126  A    between atoms: _329  and  _330
REMARK  127  A    between atoms: _329  and  _332
REMARK  128  A    between atoms: _332  and  _333
REMARK  129  A    between atoms: _333  and  _334
REMARK  130  A    between atoms: _336  and  _338
REMARK  131  A    between atoms: _338  and  _339
REMARK  132  A    between atoms: _338  and  _341
REMARK  133  A    between atoms: _341  and  _342
REMARK  134  A    between atoms: _347  and  _349
REMARK  135  A    between atoms: _349  and  _350
REMARK  136  A    between atoms: _349  and  _352
REMARK  137  A    between atoms: _352  and  _353
REMARK  138  A    between atoms: _358  and  _359
REMARK  139  A    between atoms: _361  and  _363
REMARK  140  A    between atoms: _363  and  _364
REMARK  141  A    between atoms: _363  and  _366
REMARK  142  A    between atoms: _366  and  _367
REMARK  143  A    between atoms: _372  and  _373
REMARK  144  A    between atoms: _375  and  _377
REMARK  145  A    between atoms: _377  and  _378
REMARK  146  A    between atoms: _377  and  _380
REMARK  147  A    between atoms: _380  and  _381
REMARK  148  A    between atoms: _384  and  _386
REMARK  149  A    between atoms: _386  and  _387
REMARK  150  A    between atoms: _386  and  _389
REMARK  151  A    between atoms: _389  and  _390
REMARK  152  A    between atoms: _395  and  _397
REMARK  153  A    between atoms: _397  and  _398
REMARK  154  A    between atoms: _397  and  _400
REMARK  155  A    between atoms: _400  and  _401
REMARK  156  A    between atoms: _401  and  _402
REMARK  157  A    between atoms: _407  and  _409
REMARK  158  A    between atoms: _409  and  _410
REMARK  159  A    between atoms: _409  and  _412
REMARK  160  A    between atoms: _412  and  _413
REMARK  161  A    between atoms: _416  and  _418
REMARK  162  A    between atoms: _418  and  _419
REMARK  163  A    between atoms: _421  and  _423
REMARK  164  A    between atoms: _423  and  _424
REMARK  165  A    between atoms: _423  and  _426
REMARK  166  A    between atoms: _430  and  _431
REMARK  167  A    between atoms: _436  and  _438
REMARK  168  A    between atoms: _438  and  _439
REMARK  169  A    between atoms: _442  and  _444
REMARK  170  A    between atoms: _444  and  _445
REMARK  171  A    between atoms: _444  and  _447
REMARK  172  A    between atoms: _447  and  _448
REMARK  173  A    between atoms: _454  and  _456
REMARK  174  A    between atoms: _456  and  _457
REMARK  175  A    between atoms: _456  and  _459
REMARK  176  A    between atoms: _459  and  _460
REMARK  177  A    between atoms: _463  and  _465
REMARK  178  A    between atoms: _465  and  _466
REMARK  179  A    between atoms: _465  and  _468
REMARK  180  A    between atoms: _468  and  _469
REMARK  181  A    between atoms: _469  and  _470
REMARK  182  A    between atoms: _473  and  _475
REMARK  183  A    between atoms: _475  and  _476
REMARK  184  A    between atoms: _475  and  _478
REMARK  185  A    between atoms: _478  and  _479
REMARK  186  A    between atoms: _484  and  _486
REMARK  187  A    between atoms: _486  and  _487
REMARK  188  A    between atoms: _489  and  _491
REMARK  189  A    between atoms: _491  and  _492
REMARK  190  A    between atoms: _491  and  _494
REMARK  191  A    between atoms: _494  and  _495
REMARK  192  A    between atoms: _495  and  _496
REMARK  193  A    between atoms: _498  and  _500
REMARK  194  A    between atoms: _500  and  _501
REMARK  195  A    between atoms: _503  and  _505
REMARK  196  A    between atoms: _505  and  _506
REMARK  197  A    between atoms: _505  and  _508
REMARK  198  A    between atoms: _508  and  _509
REMARK  199  A    between atoms: _519  and  _521
REMARK  200  A    between atoms: _521  and  _522
REMARK  201  A    between atoms: _525  and  _527
REMARK  202  A    between atoms: _527  and  _528
REMARK  203  A    between atoms: _527  and  _530
REMARK  204  A    between atoms: _530  and  _531
REMARK  205  A    between atoms: _534  and  _536
REMARK  206  A    between atoms: _536  and  _537
REMARK  207  A    between atoms: _536  and  _539
REMARK  208  A    between atoms: _539  and  _540
REMARK  209  A    between atoms: _545  and  _547
REMARK  210  A    between atoms: _547  and  _548
REMARK  211  A    between atoms: _547  and  _550
REMARK  212  A    between atoms: _550  and  _551
REMARK  213  A    between atoms: _557  and  _559
REMARK  214  A    between atoms: _559  and  _560
REMARK  215  A    between atoms: _559  and  _562
REMARK  216  A    between atoms: _562  and  _563
REMARK  217  A    between atoms: _563  and  _564
REMARK  218  A    between atoms: _567  and  _569
REMARK  219  A    between atoms: _569  and  _570
REMARK  220  A    between atoms: _569  and  _572
REMARK  221  A    between atoms: _572  and  _573
REMARK  222  A    between atoms: _583  and  _585
REMARK  223  A    between atoms: _585  and  _586
REMARK  224  A    between atoms: _585  and  _588
REMARK  225  A    between atoms: _588  and  _589
REMARK  226  A    between atoms: _592  and  _594
REMARK  227  A    between atoms: _594  and  _595
REMARK  228  A    between atoms: _594  and  _597
REMARK  229  A    between atoms: _597  and  _598
REMARK  230  A    between atoms: _600  and  _602
REMARK  231  A    between atoms: _602  and  _603
REMARK  232  A    between atoms: _605  and  _607
REMARK  233  A    between atoms: _607  and  _608
REMARK  234  A    between atoms: _607  and  _610
REMARK  235  A    between atoms: _610  and  _611
REMARK  236  A    between atoms: _614  and  _616
REMARK  237  A    between atoms: _616  and  _617
REMARK  238  A    between atoms: _616  and  _619
REMARK  239  A    between atoms: _619  and  _620
REMARK  240  A    between atoms: _620  and  _621
REMARK  241  A    between atoms: _626  and  _628
REMARK  242  A    between atoms: _628  and  _629
REMARK  243  A    between atoms: _628  and  _631
REMARK  244  A    between atoms: _631  and  _632
REMARK                            x       y       z     vdW  Elec       q    Type
REMARK                         _______ _______ _______ _____ _____    ______ ____
ROOT
ATOM      1  C   VAL A   3     -11.827  29.625  21.192  0.00  0.00    +0.244 C 
ATOM      2  O   VAL A   3     -11.546  28.481  20.854  0.00  0.00    -0.273 OA
ATOM      3  N   PRO A   4     -12.550  30.453  20.424  0.00  0.00    -0.272 N 
ATOM      4  CD  PRO A   4     -12.837  31.863  20.747  0.00  0.00    +0.094 C 
ATOM      5  CG  PRO A   4     -13.846  32.262  19.694  0.00  0.00    +0.024 C 
ATOM      6  CB  PRO A   4     -13.598  31.358  18.532  0.00  0.00    +0.031 C 
ATOM      7  CA  PRO A   4     -13.220  30.027  19.185  0.00  0.00    +0.152 C 
ENDROOT
BRANCH   7   8
ATOM      8  C   PRO A   4     -12.366  29.183  18.230  0.00  0.00    +0.241 C 
ATOM      9  N   ALA A   5     -11.150  29.620  17.936  0.00  0.00    -0.297 N 
ATOM     10  H   ALA A   5     -10.769  30.461  18.415  0.00  0.00    +0.150 HD
ATOM     11  O   PRO A   4     -12.815  28.132  17.778  0.00  0.00    -0.273 OA
BRANCH   9  12
ATOM     12  CA  ALA A   5     -10.345  28.920  16.938  0.00  0.00    +0.149 C 
ATOM     13  CB  ALA A   5      -9.313  29.873  16.346  0.00  0.00    +0.031 C 
BRANCH  12  14
ATOM     14  C   ALA A   5      -9.650  27.675  17.493  0.00  0.00    +0.241 C 
ATOM     15  N   PHE A   6      -9.756  27.472  18.803  0.00  0.00    -0.298 N 
ATOM     16  H   PHE A   6     -10.463  28.011  19.342  0.00  0.00    +0.150 HD
ATOM     17  O   ALA A   5      -9.042  26.908  16.740  0.00  0.00    -0.273 OA
BRANCH  15  18
ATOM     18  CA  PHE A   6      -8.906  26.512  19.507  0.00  0.00    +0.141 C 
BRANCH  18  19
ATOM     19  C   PHE A   6      -9.649  25.262  19.965  0.00  0.00    +0.227 C 
ATOM     20  O   PHE A   6     -10.465  25.324  20.880  0.00  0.00    -0.286 OA
ENDBRANCH  18  19
BRANCH  18  21
ATOM     21  CB  PHE A   6      -8.267  27.169  20.738  0.00  0.00    +0.054 C 
BRANCH  21  22
ATOM     22  CG  PHE A   6      -7.005  27.937  20.447  0.00  0.00    -0.020 A 
ATOM     23  CD2 PHE A   6      -6.069  28.140  21.448  0.00  0.00    -0.004 A 
ATOM     24  CE2 PHE A   6      -4.892  28.836  21.193  0.00  0.00    -0.000 A 
ATOM     25  CZ  PHE A   6      -4.652  29.335  19.927  0.00  0.00    -0.000 A 
ATOM     26  CE1 PHE A   6      -5.577  29.140  18.921  0.00  0.00    -0.000 A 
ATOM     27  CD1 PHE A   6      -6.747  28.438  19.181  0.00  0.00    -0.004 A 
ENDBRANCH  21  22
ENDBRANCH  18  21
ENDBRANCH  15  18
ENDBRANCH  12  14
ENDBRANCH   9  12
ENDBRANCH   7   8
BRANCH   1  28
ATOM     28  CA  VAL A   3     -11.355  30.162  22.540  0.00  0.00    +0.149 C 
BRANCH  28  31
ATOM     29  C   GLY A   2     -12.980  29.831  24.332  0.00  0.00    +0.243 C 
ATOM     30  O   GLY A   2     -13.454  30.957  24.188  0.00  0.00    -0.273 OA
ATOM     31  N   VAL A   3     -11.952  29.380  23.617  0.00  0.00    -0.297 N 
ATOM     32  H   VAL A   3     -11.562  28.440  23.833  0.00  0.00    +0.150 HD
BRANCH  29  33
ATOM     33  CA  GLY A   2     -13.549  28.881  25.367  0.00  0.00    +0.176 C 
BRANCH  33  35
ATOM     34  C   THR A   1     -13.214  26.700  24.365  0.00  0.00    +0.241 C 
ATOM     35  N   GLY A   2     -12.924  27.573  25.323  0.00  0.00    -0.295 N 
ATOM     36  H   GLY A   2     -12.234  27.313  26.057  0.00  0.00    +0.150 HD
ATOM     37  O   THR A   1     -14.053  26.924  23.492  0.00  0.00    -0.274 OA
BRANCH  34  38
ATOM     38  CA  THR A   1     -12.450  25.383  24.377  0.00  0.00    +0.172 C 
BRANCH  38  39
ATOM     39  N   THR A   1     -12.864  24.639  23.198  0.00  0.00    -0.236 NA
ATOM     40  H   THR A   1     -12.737  25.070  22.260  0.00  0.00    +0.142 HD
ENDBRANCH  38  39
BRANCH  38  41
ATOM     41  CB  THR A   1     -10.925  25.651  24.408  0.00  0.00    +0.135 C 
ATOM     42  CG2 THR A   1     -10.137  24.351  24.258  0.00  0.00    +0.034 C 
BRANCH  41  43
ATOM     43  OG1 THR A   1     -10.571  26.547  23.349  0.00  0.00    -0.383 OA
ATOM     44  HG1 THR A   1     -10.816  26.142  22.480  0.00  0.00    +0.210 HD
ENDBRANCH  41  43
ENDBRANCH  38  41
ENDBRANCH  34  38
ENDBRANCH  33  35
ENDBRANCH  29  33
ENDBRANCH  28  31
BRANCH  28  45
ATOM     45  CB  VAL A   3      -9.815  30.129  22.594  0.00  0.00    +0.027 C 
ATOM     46  CG2 VAL A   3      -9.324  30.615  23.949  0.00  0.00    +0.002 C 
ATOM     47  CG1 VAL A   3      -9.229  30.980  21.476  0.00  0.00    +0.002 C 
ENDBRANCH  28  45
ENDBRANCH   1  28
TORSDOF 16
REMARK  Name = ../refined-set-2016/3wq6/3wq6_pocket.pdb
REMARK  244 active torsions:
REMARK  status: ('A' for Active; 'I' for Inactive)
REMARK    1  A    between atoms: _1  and  _3
REMARK    2  A    between atoms: _3  and  _4
REMARK    3  A    between atoms: _7  and  _9
REMARK    4  A    between atoms: _9  and  _10
REMARK    5  A    between atoms: _9  and  _12
REMARK    6  A    between atoms: _12  and  _13
REMARK    7  A    between atoms: _15  and  _17
REMARK    8  A    between atoms: _17  and  _18
REMARK    9  A    between atoms: _17  and  _20
REMARK   10  A    between atoms: _20  and  _21
REMARK   11  A    between atoms: _23  and  _25
REMARK   12  A    between atoms: _25  and  _26
REMARK   13  A    between atoms: _29  and  _31
REMARK   14  A    between atoms: _31  and  _32
REMARK   15  A    between atoms: _31  and  _34
REMARK   16  A    between atoms: _34  and  _35
REMARK   17  A    between atoms: _40  and  _41
REMARK   18  A    between atoms: _43  and  _45
REMARK   19  A    between atoms: _45  and  _46
REMARK   20  A    between atoms: _45  and  _48
REMARK   21  A    between atoms: _48  and  _49
REMARK   22  A    between atoms: _49  and  _50
REMARK   23  A    between atoms: _55  and  _57
REMARK   24  A    between atoms: _57  and  _58
REMARK   25  A    between atoms: _57  and  _60
REMARK   26  A    between atoms: _60  and  _61
REMARK   27  A    between atoms: _67  and  _69
REMARK   28  A    between atoms: _69  and  _70
REMARK   29  A    between atoms: _69  and  _72
REMARK   30  A    between atoms: _72  and  _73
REMARK   31  A    between atoms: _83  and  _85
REMARK   32  A    between atoms: _85  and  _86
REMARK   33  A    between atoms: _85  and  _88
REMARK   34  A    between atoms: _88  and  _89
REMARK   35  A    between atoms: _91  and  _93
REMARK   36  A    between atoms: _93  and  _94
REMARK   37  A    between atoms: _93  and  _96
REMARK   38  A    between atoms: _96  and  _97
REMARK   39  A    between atoms: _97  and  _98
REMARK   40  A    between atoms: _98  and  _99
REMARK   41  A    between atoms: _108  and  _110
REMARK   42  A    between atoms: _110  and  _111
REMARK   43  A    between atoms: _110  and  _113
REMARK   44  A    between atoms: _113  and  _114
REMARK   45  A    between atoms: _117  and  _119
REMARK   46  A    between atoms: _119  and  _120
REMARK   47  A    between atoms: _119  and  _122
REMARK   48  A    between atoms: _122  and  _123
REMARK   49  A    between atoms: _128  and  _130
REMARK   50  A    between atoms: _130  and  _131
REMARK   51  A    between atoms: _130  and  _133
REMARK   52  A    between atoms: _133  and  _134
REMARK   53  A    between atoms: _144  and  _146
REMARK   54  A    between atoms: _146  and  _147
REMARK   55  A    between atoms: _146  and  _149
REMARK   56  A    between atoms: _149  and  _150
REMARK   57  A    between atoms: _155  and  _157
REMARK   58  A    between atoms: _157  and  _158
REMARK   59  A    between atoms: _157  and  _160
REMARK   60  A    between atoms: _160  and  _161
REMARK   61  A    between atoms: _161  and  _162
REMARK   62  A    between atoms: _165  and  _167
REMARK   63  A    between atoms: _167  and  _168
REMARK   64  A    between atoms: _167  and  _170
REMARK   65  A    between atoms: _170  and  _171
REMARK   66  A    between atoms: _181  and  _183
REMARK   67  A    between atoms: _183  and  _184
REMARK   68  A    between atoms: _183  and  _186
REMARK   69  A    between atoms: _186  and  _187
REMARK   70  A    between atoms: _189  and  _191
REMARK   71  A    between atoms: _191  and  _192
REMARK   72  A    between atoms: _191  and  _194
REMARK   73  A    between atoms: _194  and  _195
REMARK   74  A    between atoms: _200  and  _201
REMARK   75  A    between atoms: _203  and  _205
REMARK   76  A    between atoms: _205  and  _206
REMARK   77  A    between atoms: _205  and  _208
REMARK   78  A    between atoms: _208  and  _209
REMARK   79  A    between atoms: _211  and  _213
REMARK   80  A    between atoms: _213  and  _214
REMARK   81  A    between atoms: _213  and  _216
REMARK   82  A    between atoms: _216  and  _217
REMARK   83  A    between atoms: _222  and  _223
REMARK   84  A    between atoms: _225  and  _227
REMARK   85  A    between atoms: _227  and  _228
REMARK   86  A    between atoms: _230  and  _232
REMARK   87  A    between atoms: _232  and  _233
REMARK   88  A    between atoms: _235  and  _237
REMARK   89  A    between atoms: _237  and  _238
REMARK   90  A    between atoms: _237  and  _240
REMARK   91  A    between atoms: _240  and  _241
REMARK   92  A    between atoms: _246  and  _247
REMARK   93  A    between atoms: _249  and  _251
REMARK   94  A    between atoms: _251  and  _252
REMARK   95  A    between atoms: _251  and  _254
REMARK   96  A    between atoms: _254  and  _255
REMARK   97  A    between atoms: _258  and  _260
REMARK   98  A    between atoms: _260  and  _261
REMARK   99  A    between atoms: _264  and  _266
REMARK  100  A    between atoms: _266  and  _267
REMARK  101  A    between atoms: _269  and  _271
REMARK  102  A    between atoms: _271  and  _272
REMARK  103  A    between atoms: _271  and  _274
REMARK  104  A    between atoms: _274  and  _275
REMARK  105  A    between atoms: _278  and  _280
REMARK  106  A    between atoms: _280  and  _281
REMARK  107  A    between atoms: _280  and  _283
REMARK  108  A    between atoms: _283  and  _284
REMARK  109  A    between atoms: _287  and  _289
REMARK  110  A    between atoms: _289  and  _290
REMARK  111  A    between atoms: _289  and  _292
REMARK  112  A    between atoms: _292  and  _293
REMARK  113  A    between atoms: _296  and  _298
REMARK  114  A    between atoms: _298  and  _299
REMARK  115  A    between atoms: _298  and  _301
REMARK  116  A    between atoms: _304  and  _306
REMARK  117  A    between atoms: _306  and  _307
REMARK  118  A    between atoms: _306  and  _309
REMARK  119  A    between atoms: _309  and  _310
REMARK  120  A    between atoms: _313  and  _315
REMARK  121  A    between atoms: _315  and  _316
REMARK  122  A    between atoms: _315  and  _318
REMARK  123  A    between atoms: _318  and  _319
REMARK  124  A    between atoms: _324  and  _325
REMARK  125  A    between atoms: _327  and  _329
REMARK  126  A    between atoms: _329  and  _330
REMARK  127  A    between atoms: _329  and  _332
REMARK  128  A    between atoms: _332  and  _333
REMARK  129  A    between atoms: _333  and  _334
REMARK  130  A    between atoms: _336  and  _338
REMARK  131  A    between atoms: _338  and  _339
REMARK  132  A    between atoms: _338  and  _341
REMARK  133  A    between atoms: _341  and  _342
REMARK  134  A    between atoms: _347  and  _349
REMARK  135  A    between atoms: _349  and  _350
REMARK  136  A    between atoms: _349  and  _352
REMARK  137  A    between atoms: _352  and  _353
REMARK  138  A    between atoms: _358  and  _359
REMARK  139  A    between atoms: _361  and  _363
REMARK  140  A    between atoms: _363  and  _364
REMARK  141  A    between atoms: _363  and  _366
REMARK  142  A    between atoms: _366  and  _367
REMARK  143  A    between atoms: _372  and  _373
REMARK  144  A    between atoms: _375  and  _377
REMARK  145  A    between atoms: _377  and  _378
REMARK  146  A    between atoms: _377  and  _380
REMARK  147  A    between atoms: _380  and  _381
REMARK  148  A    between atoms: _384  and  _386
REMARK  149  A    between atoms: _386  and  _387
REMARK  150  A    between atoms: _386  and  _389
REMARK  151  A    between atoms: _389  and  _390
REMARK  152  A    between atoms: _395  and  _397
REMARK  153  A    between atoms: _397  and  _398
REMARK  154  A    between atoms: _397  and  _400
REMARK  155  A    between atoms: _400  and  _401
REMARK  156  A    between atoms: _401  and  _402
REMARK  157  A    between atoms: _407  and  _409
REMARK  158  A    between atoms: _409  and  _410
REMARK  159  A    between atoms: _409  and  _412
REMARK  160  A    between atoms: _412  and  _413
REMARK  161  A    between atoms: _416  and  _418
REMARK  162  A    between atoms: _418  and  _419
REMARK  163  A    between atoms: _421  and  _423
REMARK  164  A    between atoms: _423  and  _424
REMARK  165  A    between atoms: _423  and  _426
REMARK  166  A    between atoms: _430  and  _431
REMARK  167  A    between atoms: _436  and  _438
REMARK  168  A    between atoms: _438  and  _439
REMARK  169  A    between atoms: _442  and  _444
REMARK  170  A    between atoms: _444  and  _445
REMARK  171  A    between atoms: _444  and  _447
REMARK  172  A    between atoms: _447  and  _448
REMARK  173  A    between atoms: _454  and  _456
REMARK  174  A    between atoms: _456  and  _457
REMARK  175  A    between atoms: _456  and  _459
REMARK  176  A    between atoms: _459  and  _460
REMARK  177  A    between atoms: _463  and  _465
REMARK  178  A    between atoms: _465  and  _466
REMARK  179  A    between atoms: _465  and  _468
REMARK  180  A    between atoms: _468  and  _469
REMARK  181  A    between atoms: _469  and  _470
REMARK  182  A    between atoms: _473  and  _475
REMARK  183  A    between atoms: _475  and  _476
REMARK  184  A    between atoms: _475  and  _478
REMARK  185  A    between atoms: _478  and  _479
REMARK  186  A    between atoms: _484  and  _486
REMARK  187  A    between atoms: _486  and  _487
REMARK  188  A    between atoms: _489  and  _491
REMARK  189  A    between atoms: _491  and  _492
REMARK  190  A    between atoms: _491  and  _494
REMARK  191  A    between atoms: _494  and  _495
REMARK  192  A    between atoms: _495  and  _496
REMARK  193  A    between atoms: _498  and  _500
REMARK  194  A    between atoms: _500  and  _501
REMARK  195  A    between atoms: _503  and  _505
REMARK  196  A    between atoms: _505  and  _506
REMARK  197  A    between atoms: _505  and  _508
REMARK  198  A    between atoms: _508  and  _509
REMARK  199  A    between atoms: _519  and  _521
REMARK  200  A    between atoms: _521  and  _522
REMARK  201  A    between atoms: _525  and  _527
REMARK  202  A    between atoms: _527  and  _528
REMARK  203  A    between atoms: _527  and  _530
REMARK  204  A    between atoms: _530  and  _531
REMARK  205  A    between atoms: _534  and  _536
REMARK  206  A    between atoms: _536  and  _537
REMARK  207  A    between atoms: _536  and  _539
REMARK  208  A    between atoms: _539  and  _540
REMARK  209  A    between atoms: _545  and  _547
REMARK  210  A    between atoms: _547  and  _548
REMARK  211  A    between atoms: _547  and  _550
REMARK  212  A    between atoms: _550  and  _551
REMARK  213  A    between atoms: _557  and  _559
REMARK  214  A    between atoms: _559  and  _560
REMARK  215  A    between atoms: _559  and  _562
REMARK  216  A    between atoms: _562  and  _563
REMARK  217  A    between atoms: _563  and  _564
REMARK  218  A    between atoms: _567  and  _569
REMARK  219  A    between atoms: _569  and  _570
REMARK  220  A    between atoms: _569  and  _572
REMARK  221  A    between atoms: _572  and  _573
REMARK  222  A    between atoms: _583  and  _585
REMARK  223  A    between atoms: _585  and  _586
REMARK  224  A    between atoms: _585  and  _588
REMARK  225  A    between atoms: _588  and  _589
REMARK  226  A    between atoms: _592  and  _594
REMARK  227  A    between atoms: _594  and  _595
REMARK  228  A    between atoms: _594  and  _597
REMARK  229  A    between atoms: _597  and  _598
REMARK  230  A    between atoms: _600  and  _602
REMARK  231  A    between atoms: _602  and  _603
REMARK  232  A    between atoms: _605  and  _607
REMARK  233  A    between atoms: _607  and  _608
REMARK  234  A    between atoms: _607  and  _610
REMARK  235  A    between atoms: _610  and  _611
REMARK  236  A    between atoms: _614  and  _616
REMARK  237  A    between atoms: _616  and  _617
REMARK  238  A    between atoms: _616  and  _619
REMARK  239  A    between atoms: _619  and  _620
REMARK  240  A    between atoms: _620  and  _621
REMARK  241  A    between atoms: _626  and  _628
REMARK  242  A    between atoms: _628  and  _629
REMARK  243  A    between atoms: _628  and  _631
REMARK  244  A    between atoms: _631  and  _632
REMARK                            x       y       z     vdW  Elec       q    Type
REMARK                         _______ _______ _______ _____ _____    ______ ____
ROOT
ATOM      1  CA  ASN A   3       0.652  24.330  26.875  0.00  0.00    +0.158 C 
ENDROOT
BRANCH   1   3
ATOM      2  C   GLU A   2       2.764  25.539  26.587  0.00  0.00    +0.241 C 
ATOM      3  N   ASN A   3       1.729  25.199  27.347  0.00  0.00    -0.297 N 
ATOM      4  H   ASN A   3       1.683  25.566  28.319  0.00  0.00    +0.150 HD
ATOM      5  O   GLU A   2       2.998  25.028  25.497  0.00  0.00    -0.273 OA
BRANCH   2   6
ATOM      6  CA  GLU A   2       3.663  26.646  27.132  0.00  0.00    +0.149 C 
BRANCH   6   9
ATOM      7  C   THR A   1       6.042  26.746  27.790  0.00  0.00    +0.241 C 
ATOM      8  O   THR A   1       5.858  27.633  28.620  0.00  0.00    -0.274 OA
ATOM      9  N   GLU A   2       5.083  26.294  26.976  0.00  0.00    -0.297 N 
ATOM     10  H   GLU A   2       5.354  25.663  26.195  0.00  0.00    +0.150 HD
BRANCH   7  11
ATOM     11  CA  THR A   1       7.421  26.089  27.682  0.00  0.00    +0.172 C 
BRANCH  11  12
ATOM     12  CB  THR A   1       8.481  27.123  27.184  0.00  0.00    +0.135 C 
ATOM     13  CG2 THR A   1       9.878  26.666  27.566  0.00  0.00    +0.034 C 
BRANCH  12  14
ATOM     14  OG1 THR A   1       8.420  27.274  25.759  0.00  0.00    -0.383 OA
ATOM     15  HG1 THR A   1       7.519  27.592  25.500  0.00  0.00    +0.210 HD
ENDBRANCH  12  14
ENDBRANCH  11  12
BRANCH  11  16
ATOM     16  N   THR A   1       7.415  24.885  26.859  0.00  0.00    -0.236 NA
ATOM     17  H   THR A   1       7.566  24.953  25.832  0.00  0.00    +0.142 HD
ENDBRANCH  11  16
ENDBRANCH   7  11
ENDBRANCH   6   9
BRANCH   6  18
ATOM     18  CB  GLU A   2       3.297  27.949  26.407  0.00  0.00    +0.041 C 
BRANCH  18  19
ATOM     19  CG  GLU A   2       3.865  29.217  27.013  0.00  0.00    +0.116 C 
BRANCH  19  20
ATOM     20  CD  GLU A   2       3.478  30.468  26.246  0.00  0.00    +0.365 C 
ATOM     21  OE2 GLU A   2       4.288  31.420  26.235  0.00  0.00    -0.246 OA
ATOM     22  OE1 GLU A   2       2.371  30.504  25.662  0.00  0.00    -0.246 OA
ENDBRANCH  19  20
ENDBRANCH  18  19
ENDBRANCH   6  18
ENDBRANCH   2   6
ENDBRANCH   1   3
BRANCH   1  23
ATOM     23  C   ASN A   3      -0.556  24.597  27.772  0.00  0.00    +0.241 C 
ATOM     24  O   ASN A   3      -0.433  24.609  29.001  0.00  0.00    -0.273 OA
ATOM     25  N   GLY A   4      -1.710  24.856  27.164  0.00  0.00    -0.295 N 
ATOM     26  H   GLY A   4      -1.764  24.815  26.126  0.00  0.00    +0.150 HD
BRANCH  25  27
ATOM     27  CA  GLY A   4      -2.896  25.196  27.930  0.00  0.00    +0.176 C 
BRANCH  27  28
ATOM     28  C   GLY A   4      -4.111  25.528  27.086  0.00  0.00    +0.243 C 
ATOM     29  N   MET A   5      -5.199  25.883  27.762  0.00  0.00    -0.297 N 
ATOM     30  H   MET A   5      -5.149  25.939  28.799  0.00  0.00    +0.150 HD
ATOM     31  O   GLY A   4      -4.072  25.460  25.857  0.00  0.00    -0.273 OA
BRANCH  29  32
ATOM     32  CA  MET A   5      -6.459  26.196  27.102  0.00  0.00    +0.149 C 
BRANCH  32  33
ATOM     33  C   MET A   5      -7.159  27.327  27.837  0.00  0.00    +0.241 C 
ATOM     34  O   MET A   5      -6.913  27.556  29.024  0.00  0.00    -0.273 OA
ATOM     35  N   GLY A   6      -8.037  28.031  27.135  0.00  0.00    -0.296 N 
ATOM     36  H   GLY A   6      -8.231  27.771  26.147  0.00  0.00    +0.150 HD
BRANCH  35  37
ATOM     37  CA  GLY A   6      -8.730  29.158  27.728  0.00  0.00    +0.163 C 
BRANCH  37  38
ATOM     38  C   GLY A   6     -10.216  28.922  27.902  0.00  0.00    +0.229 C 
ATOM     39  O   GLY A   6     -10.851  28.263  27.075  0.00  0.00    -0.286 OA
ENDBRANCH  37  38
ENDBRANCH  35  37
ENDBRANCH  32  33
BRANCH  32  40
ATOM     40  CB  MET A   5      -7.369  24.968  27.048  0.00  0.00    +0.041 C 
BRANCH  40  41
ATOM     41  CG  MET A   5      -7.737  24.422  28.427  0.00  0.00    +0.060 C 
BRANCH  41  42
ATOM     42  SD  MET A   5      -9.261  23.456  28.393  0.00  0.00    -0.139 S 
ATOM     43  CE  MET A   5     -10.471  24.734  28.088  0.00  0.00    +0.069 C 
ENDBRANCH  41  42
ENDBRANCH  40  41
ENDBRANCH  32  40
ENDBRANCH  29  32
ENDBRANCH  27  28
ENDBRANCH  25  27
ENDBRANCH   1  23
BRANCH   1  44
ATOM     44  CB  ASN A   3       1.083  22.852  26.891  0.00  0.00    +0.114 C 
BRANCH  44  45
ATOM     45  CG  ASN A   3      -0.012  21.896  26.397  0.00  0.00    +0.222 C 
ATOM     46  OD1 ASN A   3      -0.291  20.877  27.036  0.00  0.00    -0.275 OA
ATOM     47  ND2 ASN A   3      -0.623  22.216  25.260  0.00  0.00    -0.329 N 
ATOM     48 HD21 ASN A   3      -1.367  21.598  24.878  0.00  0.00    +0.145 HD
ATOM     49 HD22 ASN A   3      -0.357  23.084  24.753  0.00  0.00    +0.145 HD
ENDBRANCH  44  45
ENDBRANCH   1  44
TORSDOF 22
REMARK  Name = ../refined-set-2016/3wq6/3wq6_pocket.pdb
REMARK  244 active torsions:
REMARK  status: ('A' for Active; 'I' for Inactive)
REMARK    1  A    between atoms: _1  and  _3
REMARK    2  A    between atoms: _3  and  _4
REMARK    3  A    between atoms: _7  and  _9
REMARK    4  A    between atoms: _9  and  _10
REMARK    5  A    between atoms: _9  and  _12
REMARK    6  A    between atoms: _12  and  _13
REMARK    7  A    between atoms: _15  and  _17
REMARK    8  A    between atoms: _17  and  _18
REMARK    9  A    between atoms: _17  and  _20
REMARK   10  A    between atoms: _20  and  _21
REMARK   11  A    between atoms: _23  and  _25
REMARK   12  A    between atoms: _25  and  _26
REMARK   13  A    between atoms: _29  and  _31
REMARK   14  A    between atoms: _31  and  _32
REMARK   15  A    between atoms: _31  and  _34
REMARK   16  A    between atoms: _34  and  _35
REMARK   17  A    between atoms: _40  and  _41
REMARK   18  A    between atoms: _43  and  _45
REMARK   19  A    between atoms: _45  and  _46
REMARK   20  A    between atoms: _45  and  _48
REMARK   21  A    between atoms: _48  and  _49
REMARK   22  A    between atoms: _49  and  _50
REMARK   23  A    between atoms: _55  and  _57
REMARK   24  A    between atoms: _57  and  _58
REMARK   25  A    between atoms: _57  and  _60
REMARK   26  A    between atoms: _60  and  _61
REMARK   27  A    between atoms: _67  and  _69
REMARK   28  A    between atoms: _69  and  _70
REMARK   29  A    between atoms: _69  and  _72
REMARK   30  A    between atoms: _72  and  _73
REMARK   31  A    between atoms: _83  and  _85
REMARK   32  A    between atoms: _85  and  _86
REMARK   33  A    between atoms: _85  and  _88
REMARK   34  A    between atoms: _88  and  _89
REMARK   35  A    between atoms: _91  and  _93
REMARK   36  A    between atoms: _93  and  _94
REMARK   37  A    between atoms: _93  and  _96
REMARK   38  A    between atoms: _96  and  _97
REMARK   39  A    between atoms: _97  and  _98
REMARK   40  A    between atoms: _98  and  _99
REMARK   41  A    between atoms: _108  and  _110
REMARK   42  A    between atoms: _110  and  _111
REMARK   43  A    between atoms: _110  and  _113
REMARK   44  A    between atoms: _113  and  _114
REMARK   45  A    between atoms: _117  and  _119
REMARK   46  A    between atoms: _119  and  _120
REMARK   47  A    between atoms: _119  and  _122
REMARK   48  A    between atoms: _122  and  _123
REMARK   49  A    between atoms: _128  and  _130
REMARK   50  A    between atoms: _130  and  _131
REMARK   51  A    between atoms: _130  and  _133
REMARK   52  A    between atoms: _133  and  _134
REMARK   53  A    between atoms: _144  and  _146
REMARK   54  A    between atoms: _146  and  _147
REMARK   55  A    between atoms: _146  and  _149
REMARK   56  A    between atoms: _149  and  _150
REMARK   57  A    between atoms: _155  and  _157
REMARK   58  A    between atoms: _157  and  _158
REMARK   59  A    between atoms: _157  and  _160
REMARK   60  A    between atoms: _160  and  _161
REMARK   61  A    between atoms: _161  and  _162
REMARK   62  A    between atoms: _165  and  _167
REMARK   63  A    between atoms: _167  and  _168
REMARK   64  A    between atoms: _167  and  _170
REMARK   65  A    between atoms: _170  and  _171
REMARK   66  A    between atoms: _181  and  _183
REMARK   67  A    between atoms: _183  and  _184
REMARK   68  A    between atoms: _183  and  _186
REMARK   69  A    between atoms: _186  and  _187
REMARK   70  A    between atoms: _189  and  _191
REMARK   71  A    between atoms: _191  and  _192
REMARK   72  A    between atoms: _191  and  _194
REMARK   73  A    between atoms: _194  and  _195
REMARK   74  A    between atoms: _200  and  _201
REMARK   75  A    between atoms: _203  and  _205
REMARK   76  A    between atoms: _205  and  _206
REMARK   77  A    between atoms: _205  and  _208
REMARK   78  A    between atoms: _208  and  _209
REMARK   79  A    between atoms: _211  and  _213
REMARK   80  A    between atoms: _213  and  _214
REMARK   81  A    between atoms: _213  and  _216
REMARK   82  A    between atoms: _216  and  _217
REMARK   83  A    between atoms: _222  and  _223
REMARK   84  A    between atoms: _225  and  _227
REMARK   85  A    between atoms: _227  and  _228
REMARK   86  A    between atoms: _230  and  _232
REMARK   87  A    between atoms: _232  and  _233
REMARK   88  A    between atoms: _235  and  _237
REMARK   89  A    between atoms: _237  and  _238
REMARK   90  A    between atoms: _237  and  _240
REMARK   91  A    between atoms: _240  and  _241
REMARK   92  A    between atoms: _246  and  _247
REMARK   93  A    between atoms: _249  and  _251
REMARK   94  A    between atoms: _251  and  _252
REMARK   95  A    between atoms: _251  and  _254
REMARK   96  A    between atoms: _254  and  _255
REMARK   97  A    between atoms: _258  and  _260
REMARK   98  A    between atoms: _260  and  _261
REMARK   99  A    between atoms: _264  and  _266
REMARK  100  A    between atoms: _266  and  _267
REMARK  101  A    between atoms: _269  and  _271
REMARK  102  A    between atoms: _271  and  _272
REMARK  103  A    between atoms: _271  and  _274
REMARK  104  A    between atoms: _274  and  _275
REMARK  105  A    between atoms: _278  and  _280
REMARK  106  A    between atoms: _280  and  _281
REMARK  107  A    between atoms: _280  and  _283
REMARK  108  A    between atoms: _283  and  _284
REMARK  109  A    between atoms: _287  and  _289
REMARK  110  A    between atoms: _289  and  _290
REMARK  111  A    between atoms: _289  and  _292
REMARK  112  A    between atoms: _292  and  _293
REMARK  113  A    between atoms: _296  and  _298
REMARK  114  A    between atoms: _298  and  _299
REMARK  115  A    between atoms: _298  and  _301
REMARK  116  A    between atoms: _304  and  _306
REMARK  117  A    between atoms: _306  and  _307
REMARK  118  A    between atoms: _306  and  _309
REMARK  119  A    between atoms: _309  and  _310
REMARK  120  A    between atoms: _313  and  _315
REMARK  121  A    between atoms: _315  and  _316
REMARK  122  A    between atoms: _315  and  _318
REMARK  123  A    between atoms: _318  and  _319
REMARK  124  A    between atoms: _324  and  _325
REMARK  125  A    between atoms: _327  and  _329
REMARK  126  A    between atoms: _329  and  _330
REMARK  127  A    between atoms: _329  and  _332
REMARK  128  A    between atoms: _332  and  _333
REMARK  129  A    between atoms: _333  and  _334
REMARK  130  A    between atoms: _336  and  _338
REMARK  131  A    between atoms: _338  and  _339
REMARK  132  A    between atoms: _338  and  _341
REMARK  133  A    between atoms: _341  and  _342
REMARK  134  A    between atoms: _347  and  _349
REMARK  135  A    between atoms: _349  and  _350
REMARK  136  A    between atoms: _349  and  _352
REMARK  137  A    between atoms: _352  and  _353
REMARK  138  A    between atoms: _358  and  _359
REMARK  139  A    between atoms: _361  and  _363
REMARK  140  A    between atoms: _363  and  _364
REMARK  141  A    between atoms: _363  and  _366
REMARK  142  A    between atoms: _366  and  _367
REMARK  143  A    between atoms: _372  and  _373
REMARK  144  A    between atoms: _375  and  _377
REMARK  145  A    between atoms: _377  and  _378
REMARK  146  A    between atoms: _377  and  _380
REMARK  147  A    between atoms: _380  and  _381
REMARK  148  A    between atoms: _384  and  _386
REMARK  149  A    between atoms: _386  and  _387
REMARK  150  A    between atoms: _386  and  _389
REMARK  151  A    between atoms: _389  and  _390
REMARK  152  A    between atoms: _395  and  _397
REMARK  153  A    between atoms: _397  and  _398
REMARK  154  A    between atoms: _397  and  _400
REMARK  155  A    between atoms: _400  and  _401
REMARK  156  A    between atoms: _401  and  _402
REMARK  157  A    between atoms: _407  and  _409
REMARK  158  A    between atoms: _409  and  _410
REMARK  159  A    between atoms: _409  and  _412
REMARK  160  A    between atoms: _412  and  _413
REMARK  161  A    between atoms: _416  and  _418
REMARK  162  A    between atoms: _418  and  _419
REMARK  163  A    between atoms: _421  and  _423
REMARK  164  A    between atoms: _423  and  _424
REMARK  165  A    between atoms: _423  and  _426
REMARK  166  A    between atoms: _430  and  _431
REMARK  167  A    between atoms: _436  and  _438
REMARK  168  A    between atoms: _438  and  _439
REMARK  169  A    between atoms: _442  and  _444
REMARK  170  A    between atoms: _444  and  _445
REMARK  171  A    between atoms: _444  and  _447
REMARK  172  A    between atoms: _447  and  _448
REMARK  173  A    between atoms: _454  and  _456
REMARK  174  A    between atoms: _456  and  _457
REMARK  175  A    between atoms: _456  and  _459
REMARK  176  A    between atoms: _459  and  _460
REMARK  177  A    between atoms: _463  and  _465
REMARK  178  A    between atoms: _465  and  _466
REMARK  179  A    between atoms: _465  and  _468
REMARK  180  A    between atoms: _468  and  _469
REMARK  181  A    between atoms: _469  and  _470
REMARK  182  A    between atoms: _473  and  _475
REMARK  183  A    between atoms: _475  and  _476
REMARK  184  A    between atoms: _475  and  _478
REMARK  185  A    between atoms: _478  and  _479
REMARK  186  A    between atoms: _484  and  _486
REMARK  187  A    between atoms: _486  and  _487
REMARK  188  A    between atoms: _489  and  _491
REMARK  189  A    between atoms: _491  and  _492
REMARK  190  A    between atoms: _491  and  _494
REMARK  191  A    between atoms: _494  and  _495
REMARK  192  A    between atoms: _495  and  _496
REMARK  193  A    between atoms: _498  and  _500
REMARK  194  A    between atoms: _500  and  _501
REMARK  195  A    between atoms: _503  and  _505
REMARK  196  A    between atoms: _505  and  _506
REMARK  197  A    between atoms: _505  and  _508
REMARK  198  A    between atoms: _508  and  _509
REMARK  199  A    between atoms: _519  and  _521
REMARK  200  A    between atoms: _521  and  _522
REMARK  201  A    between atoms: _525  and  _527
REMARK  202  A    between atoms: _527  and  _528
REMARK  203  A    between atoms: _527  and  _530
REMARK  204  A    between atoms: _530  and  _531
REMARK  205  A    between atoms: _534  and  _536
REMARK  206  A    between atoms: _536  and  _537
REMARK  207  A    between atoms: _536  and  _539
REMARK  208  A    between atoms: _539  and  _540
REMARK  209  A    between atoms: _545  and  _547
REMARK  210  A    between atoms: _547  and  _548
REMARK  211  A    between atoms: _547  and  _550
REMARK  212  A    between atoms: _550  and  _551
REMARK  213  A    between atoms: _557  and  _559
REMARK  214  A    between atoms: _559  and  _560
REMARK  215  A    between atoms: _559  and  _562
REMARK  216  A    between atoms: _562  and  _563
REMARK  217  A    between atoms: _563  and  _564
REMARK  218  A    between atoms: _567  and  _569
REMARK  219  A    between atoms: _569  and  _570
REMARK  220  A    between atoms: _569  and  _572
REMARK  221  A    between atoms: _572  and  _573
REMARK  222  A    between atoms: _583  and  _585
REMARK  223  A    between atoms: _585  and  _586
REMARK  224  A    between atoms: _585  and  _588
REMARK  225  A    between atoms: _588  and  _589
REMARK  226  A    between atoms: _592  and  _594
REMARK  227  A    between atoms: _594  and  _595
REMARK  228  A    between atoms: _594  and  _597
REMARK  229  A    between atoms: _597  and  _598
REMARK  230  A    between atoms: _600  and  _602
REMARK  231  A    between atoms: _602  and  _603
REMARK  232  A    between atoms: _605  and  _607
REMARK  233  A    between atoms: _607  and  _608
REMARK  234  A    between atoms: _607  and  _610
REMARK  235  A    between atoms: _610  and  _611
REMARK  236  A    between atoms: _614  and  _616
REMARK  237  A    between atoms: _616  and  _617
REMARK  238  A    between atoms: _616  and  _619
REMARK  239  A    between atoms: _619  and  _620
REMARK  240  A    between atoms: _620  and  _621
REMARK  241  A    between atoms: _626  and  _628
REMARK  242  A    between atoms: _628  and  _629
REMARK  243  A    between atoms: _628  and  _631
REMARK  244  A    between atoms: _631  and  _632
REMARK                            x       y       z     vdW  Elec       q    Type
REMARK                         _______ _______ _______ _____ _____    ______ ____
ROOT
ATOM      1  CA  TRP A   1       0.126  28.263  30.318  0.00  0.00    +0.149 C 
ENDROOT
BRANCH   1   2
ATOM      2  C   TRP A   1      -1.351  28.211  30.695  0.00  0.00    +0.239 C 
ATOM      3  N   ALA A   2      -1.752  28.889  31.769  0.00  0.00    -0.298 N 
ATOM      4  H   ALA A   2      -2.736  28.764  32.082  0.00  0.00    +0.150 HD
ATOM      5  O   TRP A   1      -2.135  27.563  29.999  0.00  0.00    -0.274 OA
BRANCH   3   6
ATOM      6  CA  ALA A   2      -0.903  29.796  32.537  0.00  0.00    +0.137 C 
ATOM      7  CB  ALA A   2      -1.316  31.238  32.272  0.00  0.00    +0.030 C 
BRANCH   6   8
ATOM      8  C   ALA A   2      -0.975  29.505  34.034  0.00  0.00    +0.227 C 
ATOM      9  O   ALA A   2      -1.848  28.767  34.489  0.00  0.00    -0.286 OA
ENDBRANCH   6   8
ENDBRANCH   3   6
ENDBRANCH   1   2
BRANCH   1  10
ATOM     10  N   TRP A   1       0.660  26.918  30.476  0.00  0.00    -0.238 NA
ATOM     11  H   TRP A   1       0.599  26.226  29.702  0.00  0.00    +0.142 HD
ENDBRANCH   1  10
BRANCH   1  12
ATOM     12  CB  TRP A   1       0.290  28.823  28.898  0.00  0.00    +0.054 C 
BRANCH  12  13
ATOM     13  CG  TRP A   1      -0.100  30.255  28.928  0.00  0.00    -0.002 A 
ATOM     14  CD2 TRP A   1       0.746  31.349  29.288  0.00  0.00    +0.013 A 
ATOM     15  CE3 TRP A   1       2.103  31.457  29.602  0.00  0.00    +0.001 A 
ATOM     16  CZ3 TRP A   1       2.621  32.703  29.881  0.00  0.00    +0.000 A 
ATOM     17  CH2 TRP A   1       1.813  33.843  29.853  0.00  0.00    +0.001 A 
ATOM     18  CZ2 TRP A   1       0.479  33.772  29.546  0.00  0.00    +0.017 A 
ATOM     19  CE2 TRP A   1      -0.044  32.516  29.265  0.00  0.00    +0.056 A 
ATOM     20  NE1 TRP A   1      -1.319  32.145  28.924  0.00  0.00    -0.352 N 
ATOM     21  HE1 TRP A   1      -2.129  32.788  28.818  0.00  0.00    +0.166 HD
ATOM     22  CD1 TRP A   1      -1.350  30.777  28.745  0.00  0.00    +0.068 A 
ENDBRANCH  12  13
ENDBRANCH   1  12
TORSDOF 6
REMARK  Name = ../refined-set-2016/3wq6/3wq6_pocket.pdb
REMARK  244 active torsions:
REMARK  status: ('A' for Active; 'I' for Inactive)
REMARK    1  A    between atoms: _1  and  _3
REMARK    2  A    between atoms: _3  and  _4
REMARK    3  A    between atoms: _7  and  _9
REMARK    4  A    between atoms: _9  and  _10
REMARK    5  A    between atoms: _9  and  _12
REMARK    6  A    between atoms: _12  and  _13
REMARK    7  A    between atoms: _15  and  _17
REMARK    8  A    between atoms: _17  and  _18
REMARK    9  A    between atoms: _17  and  _20
REMARK   10  A    between atoms: _20  and  _21
REMARK   11  A    between atoms: _23  and  _25
REMARK   12  A    between atoms: _25  and  _26
REMARK   13  A    between atoms: _29  and  _31
REMARK   14  A    between atoms: _31  and  _32
REMARK   15  A    between atoms: _31  and  _34
REMARK   16  A    between atoms: _34  and  _35
REMARK   17  A    between atoms: _40  and  _41
REMARK   18  A    between atoms: _43  and  _45
REMARK   19  A    between atoms: _45  and  _46
REMARK   20  A    between atoms: _45  and  _48
REMARK   21  A    between atoms: _48  and  _49
REMARK   22  A    between atoms: _49  and  _50
REMARK   23  A    between atoms: _55  and  _57
REMARK   24  A    between atoms: _57  and  _58
REMARK   25  A    between atoms: _57  and  _60
REMARK   26  A    between atoms: _60  and  _61
REMARK   27  A    between atoms: _67  and  _69
REMARK   28  A    between atoms: _69  and  _70
REMARK   29  A    between atoms: _69  and  _72
REMARK   30  A    between atoms: _72  and  _73
REMARK   31  A    between atoms: _83  and  _85
REMARK   32  A    between atoms: _85  and  _86
REMARK   33  A    between atoms: _85  and  _88
REMARK   34  A    between atoms: _88  and  _89
REMARK   35  A    between atoms: _91  and  _93
REMARK   36  A    between atoms: _93  and  _94
REMARK   37  A    between atoms: _93  and  _96
REMARK   38  A    between atoms: _96  and  _97
REMARK   39  A    between atoms: _97  and  _98
REMARK   40  A    between atoms: _98  and  _99
REMARK   41  A    between atoms: _108  and  _110
REMARK   42  A    between atoms: _110  and  _111
REMARK   43  A    between atoms: _110  and  _113
REMARK   44  A    between atoms: _113  and  _114
REMARK   45  A    between atoms: _117  and  _119
REMARK   46  A    between atoms: _119  and  _120
REMARK   47  A    between atoms: _119  and  _122
REMARK   48  A    between atoms: _122  and  _123
REMARK   49  A    between atoms: _128  and  _130
REMARK   50  A    between atoms: _130  and  _131
REMARK   51  A    between atoms: _130  and  _133
REMARK   52  A    between atoms: _133  and  _134
REMARK   53  A    between atoms: _144  and  _146
REMARK   54  A    between atoms: _146  and  _147
REMARK   55  A    between atoms: _146  and  _149
REMARK   56  A    between atoms: _149  and  _150
REMARK   57  A    between atoms: _155  and  _157
REMARK   58  A    between atoms: _157  and  _158
REMARK   59  A    between atoms: _157  and  _160
REMARK   60  A    between atoms: _160  and  _161
REMARK   61  A    between atoms: _161  and  _162
REMARK   62  A    between atoms: _165  and  _167
REMARK   63  A    between atoms: _167  and  _168
REMARK   64  A    between atoms: _167  and  _170
REMARK   65  A    between atoms: _170  and  _171
REMARK   66  A    between atoms: _181  and  _183
REMARK   67  A    between atoms: _183  and  _184
REMARK   68  A    between atoms: _183  and  _186
REMARK   69  A    between atoms: _186  and  _187
REMARK   70  A    between atoms: _189  and  _191
REMARK   71  A    between atoms: _191  and  _192
REMARK   72  A    between atoms: _191  and  _194
REMARK   73  A    between atoms: _194  and  _195
REMARK   74  A    between atoms: _200  and  _201
REMARK   75  A    between atoms: _203  and  _205
REMARK   76  A    between atoms: _205  and  _206
REMARK   77  A    between atoms: _205  and  _208
REMARK   78  A    between atoms: _208  and  _209
REMARK   79  A    between atoms: _211  and  _213
REMARK   80  A    between atoms: _213  and  _214
REMARK   81  A    between atoms: _213  and  _216
REMARK   82  A    between atoms: _216  and  _217
REMARK   83  A    between atoms: _222  and  _223
REMARK   84  A    between atoms: _225  and  _227
REMARK   85  A    between atoms: _227  and  _228
REMARK   86  A    between atoms: _230  and  _232
REMARK   87  A    between atoms: _232  and  _233
REMARK   88  A    between atoms: _235  and  _237
REMARK   89  A    between atoms: _237  and  _238
REMARK   90  A    between atoms: _237  and  _240
REMARK   91  A    between atoms: _240  and  _241
REMARK   92  A    between atoms: _246  and  _247
REMARK   93  A    between atoms: _249  and  _251
REMARK   94  A    between atoms: _251  and  _252
REMARK   95  A    between atoms: _251  and  _254
REMARK   96  A    between atoms: _254  and  _255
REMARK   97  A    between atoms: _258  and  _260
REMARK   98  A    between atoms: _260  and  _261
REMARK   99  A    between atoms: _264  and  _266
REMARK  100  A    between atoms: _266  and  _267
REMARK  101  A    between atoms: _269  and  _271
REMARK  102  A    between atoms: _271  and  _272
REMARK  103  A    between atoms: _271  and  _274
REMARK  104  A    between atoms: _274  and  _275
REMARK  105  A    between atoms: _278  and  _280
REMARK  106  A    between atoms: _280  and  _281
REMARK  107  A    between atoms: _280  and  _283
REMARK  108  A    between atoms: _283  and  _284
REMARK  109  A    between atoms: _287  and  _289
REMARK  110  A    between atoms: _289  and  _290
REMARK  111  A    between atoms: _289  and  _292
REMARK  112  A    between atoms: _292  and  _293
REMARK  113  A    between atoms: _296  and  _298
REMARK  114  A    between atoms: _298  and  _299
REMARK  115  A    between atoms: _298  and  _301
REMARK  116  A    between atoms: _304  and  _306
REMARK  117  A    between atoms: _306  and  _307
REMARK  118  A    between atoms: _306  and  _309
REMARK  119  A    between atoms: _309  and  _310
REMARK  120  A    between atoms: _313  and  _315
REMARK  121  A    between atoms: _315  and  _316
REMARK  122  A    between atoms: _315  and  _318
REMARK  123  A    between atoms: _318  and  _319
REMARK  124  A    between atoms: _324  and  _325
REMARK  125  A    between atoms: _327  and  _329
REMARK  126  A    between atoms: _329  and  _330
REMARK  127  A    between atoms: _329  and  _332
REMARK  128  A    between atoms: _332  and  _333
REMARK  129  A    between atoms: _333  and  _334
REMARK  130  A    between atoms: _336  and  _338
REMARK  131  A    between atoms: _338  and  _339
REMARK  132  A    between atoms: _338  and  _341
REMARK  133  A    between atoms: _341  and  _342
REMARK  134  A    between atoms: _347  and  _349
REMARK  135  A    between atoms: _349  and  _350
REMARK  136  A    between atoms: _349  and  _352
REMARK  137  A    between atoms: _352  and  _353
REMARK  138  A    between atoms: _358  and  _359
REMARK  139  A    between atoms: _361  and  _363
REMARK  140  A    between atoms: _363  and  _364
REMARK  141  A    between atoms: _363  and  _366
REMARK  142  A    between atoms: _366  and  _367
REMARK  143  A    between atoms: _372  and  _373
REMARK  144  A    between atoms: _375  and  _377
REMARK  145  A    between atoms: _377  and  _378
REMARK  146  A    between atoms: _377  and  _380
REMARK  147  A    between atoms: _380  and  _381
REMARK  148  A    between atoms: _384  and  _386
REMARK  149  A    between atoms: _386  and  _387
REMARK  150  A    between atoms: _386  and  _389
REMARK  151  A    between atoms: _389  and  _390
REMARK  152  A    between atoms: _395  and  _397
REMARK  153  A    between atoms: _397  and  _398
REMARK  154  A    between atoms: _397  and  _400
REMARK  155  A    between atoms: _400  and  _401
REMARK  156  A    between atoms: _401  and  _402
REMARK  157  A    between atoms: _407  and  _409
REMARK  158  A    between atoms: _409  and  _410
REMARK  159  A    between atoms: _409  and  _412
REMARK  160  A    between atoms: _412  and  _413
REMARK  161  A    between atoms: _416  and  _418
REMARK  162  A    between atoms: _418  and  _419
REMARK  163  A    between atoms: _421  and  _423
REMARK  164  A    between atoms: _423  and  _424
REMARK  165  A    between atoms: _423  and  _426
REMARK  166  A    between atoms: _430  and  _431
REMARK  167  A    between atoms: _436  and  _438
REMARK  168  A    between atoms: _438  and  _439
REMARK  169  A    between atoms: _442  and  _444
REMARK  170  A    between atoms: _444  and  _445
REMARK  171  A    between atoms: _444  and  _447
REMARK  172  A    between atoms: _447  and  _448
REMARK  173  A    between atoms: _454  and  _456
REMARK  174  A    between atoms: _456  and  _457
REMARK  175  A    between atoms: _456  and  _459
REMARK  176  A    between atoms: _459  and  _460
REMARK  177  A    between atoms: _463  and  _465
REMARK  178  A    between atoms: _465  and  _466
REMARK  179  A    between atoms: _465  and  _468
REMARK  180  A    between atoms: _468  and  _469
REMARK  181  A    between atoms: _469  and  _470
REMARK  182  A    between atoms: _473  and  _475
REMARK  183  A    between atoms: _475  and  _476
REMARK  184  A    between atoms: _475  and  _478
REMARK  185  A    between atoms: _478  and  _479
REMARK  186  A    between atoms: _484  and  _486
REMARK  187  A    between atoms: _486  and  _487
REMARK  188  A    between atoms: _489  and  _491
REMARK  189  A    between atoms: _491  and  _492
REMARK  190  A    between atoms: _491  and  _494
REMARK  191  A    between atoms: _494  and  _495
REMARK  192  A    between atoms: _495  and  _496
REMARK  193  A    between atoms: _498  and  _500
REMARK  194  A    between atoms: _500  and  _501
REMARK  195  A    between atoms: _503  and  _505
REMARK  196  A    between atoms: _505  and  _506
REMARK  197  A    between atoms: _505  and  _508
REMARK  198  A    between atoms: _508  and  _509
REMARK  199  A    between atoms: _519  and  _521
REMARK  200  A    between atoms: _521  and  _522
REMARK  201  A    between atoms: _525  and  _527
REMARK  202  A    between atoms: _527  and  _528
REMARK  203  A    between atoms: _527  and  _530
REMARK  204  A    between atoms: _530  and  _531
REMARK  205  A    between atoms: _534  and  _536
REMARK  206  A    between atoms: _536  and  _537
REMARK  207  A    between atoms: _536  and  _539
REMARK  208  A    between atoms: _539  and  _540
REMARK  209  A    between atoms: _545  and  _547
REMARK  210  A    between atoms: _547  and  _548
REMARK  211  A    between atoms: _547  and  _550
REMARK  212  A    between atoms: _550  and  _551
REMARK  213  A    between atoms: _557  and  _559
REMARK  214  A    between atoms: _559  and  _560
REMARK  215  A    between atoms: _559  and  _562
REMARK  216  A    between atoms: _562  and  _563
REMARK  217  A    between atoms: _563  and  _564
REMARK  218  A    between atoms: _567  and  _569
REMARK  219  A    between atoms: _569  and  _570
REMARK  220  A    between atoms: _569  and  _572
REMARK  221  A    between atoms: _572  and  _573
REMARK  222  A    between atoms: _583  and  _585
REMARK  223  A    between atoms: _585  and  _586
REMARK  224  A    between atoms: _585  and  _588
REMARK  225  A    between atoms: _588  and  _589
REMARK  226  A    between atoms: _592  and  _594
REMARK  227  A    between atoms: _594  and  _595
REMARK  228  A    between atoms: _594  and  _597
REMARK  229  A    between atoms: _597  and  _598
REMARK  230  A    between atoms: _600  and  _602
REMARK  231  A    between atoms: _602  and  _603
REMARK  232  A    between atoms: _605  and  _607
REMARK  233  A    between atoms: _607  and  _608
REMARK  234  A    between atoms: _607  and  _610
REMARK  235  A    between atoms: _610  and  _611
REMARK  236  A    between atoms: _614  and  _616
REMARK  237  A    between atoms: _616  and  _617
REMARK  238  A    between atoms: _616  and  _619
REMARK  239  A    between atoms: _619  and  _620
REMARK  240  A    between atoms: _620  and  _621
REMARK  241  A    between atoms: _626  and  _628
REMARK  242  A    between atoms: _628  and  _629
REMARK  243  A    between atoms: _628  and  _631
REMARK  244  A    between atoms: _631  and  _632
REMARK                            x       y       z     vdW  Elec       q    Type
REMARK                         _______ _______ _______ _____ _____    ______ ____
ROOT
ATOM      1  CA  LEU A   1      -2.851  32.718  36.728  0.00  0.00    +0.133 C 
ENDROOT
BRANCH   1   2
ATOM      2  N   LEU A   1      -1.648  31.970  36.364  0.00  0.00    -0.239 NA
ATOM      3  H   LEU A   1      -0.920  32.446  35.794  0.00  0.00    +0.142 HD
ENDBRANCH   1   2
BRANCH   1   4
ATOM      4  C   LEU A   1      -3.628  33.139  35.495  0.00  0.00    +0.224 C 
ATOM      5  O   LEU A   1      -3.027  33.360  34.447  0.00  0.00    -0.287 OA
ENDBRANCH   1   4
BRANCH   1   6
ATOM      6  CB  LEU A   1      -2.493  33.983  37.509  0.00  0.00    +0.025 C 
BRANCH   6   7
ATOM      7  CG  LEU A   1      -1.597  33.947  38.743  0.00  0.00    +0.002 C 
ATOM      8  CD2 LEU A   1      -2.270  33.171  39.853  0.00  0.00    +0.000 C 
ATOM      9  CD1 LEU A   1      -1.316  35.382  39.170  0.00  0.00    +0.000 C 
ENDBRANCH   6   7
ENDBRANCH   1   6
TORSDOF 4
REMARK  Name = ../refined-set-2016/3wq6/3wq6_pocket.pdb
REMARK  244 active torsions:
REMARK  status: ('A' for Active; 'I' for Inactive)
REMARK    1  A    between atoms: _1  and  _3
REMARK    2  A    between atoms: _3  and  _4
REMARK    3  A    between atoms: _7  and  _9
REMARK    4  A    between atoms: _9  and  _10
REMARK    5  A    between atoms: _9  and  _12
REMARK    6  A    between atoms: _12  and  _13
REMARK    7  A    between atoms: _15  and  _17
REMARK    8  A    between atoms: _17  and  _18
REMARK    9  A    between atoms: _17  and  _20
REMARK   10  A    between atoms: _20  and  _21
REMARK   11  A    between atoms: _23  and  _25
REMARK   12  A    between atoms: _25  and  _26
REMARK   13  A    between atoms: _29  and  _31
REMARK   14  A    between atoms: _31  and  _32
REMARK   15  A    between atoms: _31  and  _34
REMARK   16  A    between atoms: _34  and  _35
REMARK   17  A    between atoms: _40  and  _41
REMARK   18  A    between atoms: _43  and  _45
REMARK   19  A    between atoms: _45  and  _46
REMARK   20  A    between atoms: _45  and  _48
REMARK   21  A    between atoms: _48  and  _49
REMARK   22  A    between atoms: _49  and  _50
REMARK   23  A    between atoms: _55  and  _57
REMARK   24  A    between atoms: _57  and  _58
REMARK   25  A    between atoms: _57  and  _60
REMARK   26  A    between atoms: _60  and  _61
REMARK   27  A    between atoms: _67  and  _69
REMARK   28  A    between atoms: _69  and  _70
REMARK   29  A    between atoms: _69  and  _72
REMARK   30  A    between atoms: _72  and  _73
REMARK   31  A    between atoms: _83  and  _85
REMARK   32  A    between atoms: _85  and  _86
REMARK   33  A    between atoms: _85  and  _88
REMARK   34  A    between atoms: _88  and  _89
REMARK   35  A    between atoms: _91  and  _93
REMARK   36  A    between atoms: _93  and  _94
REMARK   37  A    between atoms: _93  and  _96
REMARK   38  A    between atoms: _96  and  _97
REMARK   39  A    between atoms: _97  and  _98
REMARK   40  A    between atoms: _98  and  _99
REMARK   41  A    between atoms: _108  and  _110
REMARK   42  A    between atoms: _110  and  _111
REMARK   43  A    between atoms: _110  and  _113
REMARK   44  A    between atoms: _113  and  _114
REMARK   45  A    between atoms: _117  and  _119
REMARK   46  A    between atoms: _119  and  _120
REMARK   47  A    between atoms: _119  and  _122
REMARK   48  A    between atoms: _122  and  _123
REMARK   49  A    between atoms: _128  and  _130
REMARK   50  A    between atoms: _130  and  _131
REMARK   51  A    between atoms: _130  and  _133
REMARK   52  A    between atoms: _133  and  _134
REMARK   53  A    between atoms: _144  and  _146
REMARK   54  A    between atoms: _146  and  _147
REMARK   55  A    between atoms: _146  and  _149
REMARK   56  A    between atoms: _149  and  _150
REMARK   57  A    between atoms: _155  and  _157
REMARK   58  A    between atoms: _157  and  _158
REMARK   59  A    between atoms: _157  and  _160
REMARK   60  A    between atoms: _160  and  _161
REMARK   61  A    between atoms: _161  and  _162
REMARK   62  A    between atoms: _165  and  _167
REMARK   63  A    between atoms: _167  and  _168
REMARK   64  A    between atoms: _167  and  _170
REMARK   65  A    between atoms: _170  and  _171
REMARK   66  A    between atoms: _181  and  _183
REMARK   67  A    between atoms: _183  and  _184
REMARK   68  A    between atoms: _183  and  _186
REMARK   69  A    between atoms: _186  and  _187
REMARK   70  A    between atoms: _189  and  _191
REMARK   71  A    between atoms: _191  and  _192
REMARK   72  A    between atoms: _191  and  _194
REMARK   73  A    between atoms: _194  and  _195
REMARK   74  A    between atoms: _200  and  _201
REMARK   75  A    between atoms: _203  and  _205
REMARK   76  A    between atoms: _205  and  _206
REMARK   77  A    between atoms: _205  and  _208
REMARK   78  A    between atoms: _208  and  _209
REMARK   79  A    between atoms: _211  and  _213
REMARK   80  A    between atoms: _213  and  _214
REMARK   81  A    between atoms: _213  and  _216
REMARK   82  A    between atoms: _216  and  _217
REMARK   83  A    between atoms: _222  and  _223
REMARK   84  A    between atoms: _225  and  _227
REMARK   85  A    between atoms: _227  and  _228
REMARK   86  A    between atoms: _230  and  _232
REMARK   87  A    between atoms: _232  and  _233
REMARK   88  A    between atoms: _235  and  _237
REMARK   89  A    between atoms: _237  and  _238
REMARK   90  A    between atoms: _237  and  _240
REMARK   91  A    between atoms: _240  and  _241
REMARK   92  A    between atoms: _246  and  _247
REMARK   93  A    between atoms: _249  and  _251
REMARK   94  A    between atoms: _251  and  _252
REMARK   95  A    between atoms: _251  and  _254
REMARK   96  A    between atoms: _254  and  _255
REMARK   97  A    between atoms: _258  and  _260
REMARK   98  A    between atoms: _260  and  _261
REMARK   99  A    between atoms: _264  and  _266
REMARK  100  A    between atoms: _266  and  _267
REMARK  101  A    between atoms: _269  and  _271
REMARK  102  A    between atoms: _271  and  _272
REMARK  103  A    between atoms: _271  and  _274
REMARK  104  A    between atoms: _274  and  _275
REMARK  105  A    between atoms: _278  and  _280
REMARK  106  A    between atoms: _280  and  _281
REMARK  107  A    between atoms: _280  and  _283
REMARK  108  A    between atoms: _283  and  _284
REMARK  109  A    between atoms: _287  and  _289
REMARK  110  A    between atoms: _289  and  _290
REMARK  111  A    between atoms: _289  and  _292
REMARK  112  A    between atoms: _292  and  _293
REMARK  113  A    between atoms: _296  and  _298
REMARK  114  A    between atoms: _298  and  _299
REMARK  115  A    between atoms: _298  and  _301
REMARK  116  A    between atoms: _304  and  _306
REMARK  117  A    between atoms: _306  and  _307
REMARK  118  A    between atoms: _306  and  _309
REMARK  119  A    between atoms: _309  and  _310
REMARK  120  A    between atoms: _313  and  _315
REMARK  121  A    between atoms: _315  and  _316
REMARK  122  A    between atoms: _315  and  _318
REMARK  123  A    between atoms: _318  and  _319
REMARK  124  A    between atoms: _324  and  _325
REMARK  125  A    between atoms: _327  and  _329
REMARK  126  A    between atoms: _329  and  _330
REMARK  127  A    between atoms: _329  and  _332
REMARK  128  A    between atoms: _332  and  _333
REMARK  129  A    between atoms: _333  and  _334
REMARK  130  A    between atoms: _336  and  _338
REMARK  131  A    between atoms: _338  and  _339
REMARK  132  A    between atoms: _338  and  _341
REMARK  133  A    between atoms: _341  and  _342
REMARK  134  A    between atoms: _347  and  _349
REMARK  135  A    between atoms: _349  and  _350
REMARK  136  A    between atoms: _349  and  _352
REMARK  137  A    between atoms: _352  and  _353
REMARK  138  A    between atoms: _358  and  _359
REMARK  139  A    between atoms: _361  and  _363
REMARK  140  A    between atoms: _363  and  _364
REMARK  141  A    between atoms: _363  and  _366
REMARK  142  A    between atoms: _366  and  _367
REMARK  143  A    between atoms: _372  and  _373
REMARK  144  A    between atoms: _375  and  _377
REMARK  145  A    between atoms: _377  and  _378
REMARK  146  A    between atoms: _377  and  _380
REMARK  147  A    between atoms: _380  and  _381
REMARK  148  A    between atoms: _384  and  _386
REMARK  149  A    between atoms: _386  and  _387
REMARK  150  A    between atoms: _386  and  _389
REMARK  151  A    between atoms: _389  and  _390
REMARK  152  A    between atoms: _395  and  _397
REMARK  153  A    between atoms: _397  and  _398
REMARK  154  A    between atoms: _397  and  _400
REMARK  155  A    between atoms: _400  and  _401
REMARK  156  A    between atoms: _401  and  _402
REMARK  157  A    between atoms: _407  and  _409
REMARK  158  A    between atoms: _409  and  _410
REMARK  159  A    between atoms: _409  and  _412
REMARK  160  A    between atoms: _412  and  _413
REMARK  161  A    between atoms: _416  and  _418
REMARK  162  A    between atoms: _418  and  _419
REMARK  163  A    between atoms: _421  and  _423
REMARK  164  A    between atoms: _423  and  _424
REMARK  165  A    between atoms: _423  and  _426
REMARK  166  A    between atoms: _430  and  _431
REMARK  167  A    between atoms: _436  and  _438
REMARK  168  A    between atoms: _438  and  _439
REMARK  169  A    between atoms: _442  and  _444
REMARK  170  A    between atoms: _444  and  _445
REMARK  171  A    between atoms: _444  and  _447
REMARK  172  A    between atoms: _447  and  _448
REMARK  173  A    between atoms: _454  and  _456
REMARK  174  A    between atoms: _456  and  _457
REMARK  175  A    between atoms: _456  and  _459
REMARK  176  A    between atoms: _459  and  _460
REMARK  177  A    between atoms: _463  and  _465
REMARK  178  A    between atoms: _465  and  _466
REMARK  179  A    between atoms: _465  and  _468
REMARK  180  A    between atoms: _468  and  _469
REMARK  181  A    between atoms: _469  and  _470
REMARK  182  A    between atoms: _473  and  _475
REMARK  183  A    between atoms: _475  and  _476
REMARK  184  A    between atoms: _475  and  _478
REMARK  185  A    between atoms: _478  and  _479
REMARK  186  A    between atoms: _484  and  _486
REMARK  187  A    between atoms: _486  and  _487
REMARK  188  A    between atoms: _489  and  _491
REMARK  189  A    between atoms: _491  and  _492
REMARK  190  A    between atoms: _491  and  _494
REMARK  191  A    between atoms: _494  and  _495
REMARK  192  A    between atoms: _495  and  _496
REMARK  193  A    between atoms: _498  and  _500
REMARK  194  A    between atoms: _500  and  _501
REMARK  195  A    between atoms: _503  and  _505
REMARK  196  A    between atoms: _505  and  _506
REMARK  197  A    between atoms: _505  and  _508
REMARK  198  A    between atoms: _508  and  _509
REMARK  199  A    between atoms: _519  and  _521
REMARK  200  A    between atoms: _521  and  _522
REMARK  201  A    between atoms: _525  and  _527
REMARK  202  A    between atoms: _527  and  _528
REMARK  203  A    between atoms: _527  and  _530
REMARK  204  A    between atoms: _530  and  _531
REMARK  205  A    between atoms: _534  and  _536
REMARK  206  A    between atoms: _536  and  _537
REMARK  207  A    between atoms: _536  and  _539
REMARK  208  A    between atoms: _539  and  _540
REMARK  209  A    between atoms: _545  and  _547
REMARK  210  A    between atoms: _547  and  _548
REMARK  211  A    between atoms: _547  and  _550
REMARK  212  A    between atoms: _550  and  _551
REMARK  213  A    between atoms: _557  and  _559
REMARK  214  A    between atoms: _559  and  _560
REMARK  215  A    between atoms: _559  and  _562
REMARK  216  A    between atoms: _562  and  _563
REMARK  217  A    between atoms: _563  and  _564
REMARK  218  A    between atoms: _567  and  _569
REMARK  219  A    between atoms: _569  and  _570
REMARK  220  A    between atoms: _569  and  _572
REMARK  221  A    between atoms: _572  and  _573
REMARK  222  A    between atoms: _583  and  _585
REMARK  223  A    between atoms: _585  and  _586
REMARK  224  A    between atoms: _585  and  _588
REMARK  225  A    between atoms: _588  and  _589
REMARK  226  A    between atoms: _592  and  _594
REMARK  227  A    between atoms: _594  and  _595
REMARK  228  A    between atoms: _594  and  _597
REMARK  229  A    between atoms: _597  and  _598
REMARK  230  A    between atoms: _600  and  _602
REMARK  231  A    between atoms: _602  and  _603
REMARK  232  A    between atoms: _605  and  _607
REMARK  233  A    between atoms: _607  and  _608
REMARK  234  A    between atoms: _607  and  _610
REMARK  235  A    between atoms: _610  and  _611
REMARK  236  A    between atoms: _614  and  _616
REMARK  237  A    between atoms: _616  and  _617
REMARK  238  A    between atoms: _616  and  _619
REMARK  239  A    between atoms: _619  and  _620
REMARK  240  A    between atoms: _620  and  _621
REMARK  241  A    between atoms: _626  and  _628
REMARK  242  A    between atoms: _628  and  _629
REMARK  243  A    between atoms: _628  and  _631
REMARK  244  A    between atoms: _631  and  _632
REMARK                            x       y       z     vdW  Elec       q    Type
REMARK                         _______ _______ _______ _____ _____    ______ ____
ROOT
ATOM      1  CA  TRP A   4      -3.019  40.373  24.906  0.00  0.00    +0.153 C 
ENDROOT
BRANCH   1   2
ATOM      2  C   TRP A   4      -4.289  40.943  24.251  0.00  0.00    +0.241 C 
ATOM      3  O   TRP A   4      -5.070  41.613  24.926  0.00  0.00    -0.273 OA
ATOM      4  N   LEU A   5      -4.526  40.659  22.970  0.00  0.00    -0.297 N 
ATOM      5  H   LEU A   5      -3.908  39.996  22.461  0.00  0.00    +0.150 HD
BRANCH   4   6
ATOM      6  CA  LEU A   5      -5.664  41.286  22.278  0.00  0.00    +0.149 C 
BRANCH   6   7
ATOM      7  C   LEU A   5      -7.029  40.890  22.848  0.00  0.00    +0.241 C 
ATOM      8  N   SER A   6      -7.074  39.821  23.633  0.00  0.00    -0.295 N 
ATOM      9  H   SER A   6      -6.198  39.301  23.842  0.00  0.00    +0.150 HD
ATOM     10  O   LEU A   5      -8.029  41.542  22.560  0.00  0.00    -0.273 OA
BRANCH   8  11
ATOM     11  CA  SER A   6      -8.340  39.364  24.208  0.00  0.00    +0.178 C 
BRANCH  11  12
ATOM     12  C   SER A   6      -8.586  39.940  25.603  0.00  0.00    +0.243 C 
ATOM     13  O   SER A   6      -9.618  39.665  26.225  0.00  0.00    -0.273 OA
ATOM     14  N   GLY A   7      -7.640  40.740  26.087  0.00  0.00    -0.296 N 
ATOM     15  H   GLY A   7      -6.802  40.942  25.505  0.00  0.00    +0.150 HD
BRANCH  14  16
ATOM     16  CA  GLY A   7      -7.746  41.339  27.406  0.00  0.00    +0.163 C 
BRANCH  16  17
ATOM     17  C   GLY A   7      -8.014  40.296  28.477  0.00  0.00    +0.229 C 
ATOM     18  O   GLY A   7      -7.329  39.275  28.543  0.00  0.00    -0.286 OA
ENDBRANCH  16  17
ENDBRANCH  14  16
ENDBRANCH  11  12
BRANCH  11  19
ATOM     19  CB  SER A   6      -8.375  37.835  24.263  0.00  0.00    +0.166 C 
BRANCH  19  20
ATOM     20  OG  SER A   6      -8.255  37.283  22.963  0.00  0.00    -0.380 OA
ATOM     21  H   SER A   6      -9.005  37.600  22.400  0.00  0.00    +0.211 HD
ENDBRANCH  19  20
ENDBRANCH  11  19
ENDBRANCH   8  11
ENDBRANCH   6   7
BRANCH   6  22
ATOM     22  CB  LEU A   5      -5.637  40.975  20.774  0.00  0.00    +0.029 C 
BRANCH  22  23
ATOM     23  CG  LEU A   5      -5.799  39.550  20.231  0.00  0.00    +0.002 C 
ATOM     24  CD2 LEU A   5      -7.259  39.099  20.164  0.00  0.00    +0.000 C 
ATOM     25  CD1 LEU A   5      -5.171  39.456  18.849  0.00  0.00    +0.000 C 
ENDBRANCH  22  23
ENDBRANCH   6  22
ENDBRANCH   4   6
ENDBRANCH   1   2
BRANCH   1  27
ATOM     26  C   GLU A   3      -4.278  38.612  26.068  0.00  0.00    +0.241 C 
ATOM     27  N   TRP A   4      -3.342  39.556  26.073  0.00  0.00    -0.297 N 
ATOM     28  H   TRP A   4      -2.813  39.721  26.953  0.00  0.00    +0.150 HD
ATOM     29  O   GLU A   3      -5.051  38.418  25.125  0.00  0.00    -0.273 OA
BRANCH  26  30
ATOM     30  CA  GLU A   3      -4.352  37.767  27.335  0.00  0.00    +0.149 C 
BRANCH  30  33
ATOM     31  C   PHE A   2      -3.657  39.117  29.220  0.00  0.00    +0.241 C 
ATOM     32  O   PHE A   2      -2.478  39.055  28.883  0.00  0.00    -0.273 OA
ATOM     33  N   GLU A   3      -4.641  38.584  28.507  0.00  0.00    -0.297 N 
ATOM     34  H   GLU A   3      -5.629  38.751  28.787  0.00  0.00    +0.150 HD
BRANCH  31  35
ATOM     35  CA  PHE A   2      -4.053  39.825  30.503  0.00  0.00    +0.153 C 
BRANCH  35  37
ATOM     36  C   ASN A   1      -4.499  37.939  31.979  0.00  0.00    +0.239 C 
ATOM     37  N   PHE A   2      -3.734  38.977  31.648  0.00  0.00    -0.297 N 
ATOM     38  H   PHE A   2      -2.890  39.189  32.218  0.00  0.00    +0.150 HD
ATOM     39  O   ASN A   1      -5.544  37.663  31.389  0.00  0.00    -0.274 OA
BRANCH  36  40
ATOM     40  CA  ASN A   1      -4.015  37.082  33.148  0.00  0.00    +0.154 C 
BRANCH  40  41
ATOM     41  N   ASN A   1      -4.812  35.878  33.341  0.00  0.00    -0.238 NA
ATOM     42  H   ASN A   1      -5.210  35.388  32.514  0.00  0.00    +0.142 HD
ENDBRANCH  40  41
BRANCH  40  43
ATOM     43  CB  ASN A   1      -2.555  36.690  32.926  0.00  0.00    +0.111 C 
BRANCH  43  44
ATOM     44  CG  ASN A   1      -2.363  35.885  31.659  0.00  0.00    +0.221 C 
ATOM     45  ND2 ASN A   1      -2.391  34.556  31.778  0.00  0.00    -0.329 N 
ATOM     46 HD21 ASN A   1      -2.539  34.120  32.711  0.00  0.00    +0.145 HD
ATOM     47 HD22 ASN A   1      -2.265  33.956  30.938  0.00  0.00    +0.145 HD
ATOM     48  OD1 ASN A   1      -2.192  36.451  30.581  0.00  0.00    -0.275 OA
ENDBRANCH  43  44
ENDBRANCH  40  43
ENDBRANCH  36  40
ENDBRANCH  35  37
BRANCH  35  49
ATOM     49  CB  PHE A   2      -3.336  41.175  30.593  0.00  0.00    +0.055 C 
BRANCH  49  50
ATOM     50  CG  PHE A   2      -3.601  42.082  29.422  0.00  0.00    -0.020 A 
ATOM     51  CD2 PHE A   2      -4.770  42.827  29.358  0.00  0.00    -0.004 A 
ATOM     52  CE2 PHE A   2      -5.021  43.665  28.279  0.00  0.00    -0.000 A 
ATOM     53  CZ  PHE A   2      -4.100  43.766  27.252  0.00  0.00    -0.000 A 
ATOM     54  CE1 PHE A   2      -2.929  43.025  27.302  0.00  0.00    -0.000 A 
ATOM     55  CD1 PHE A   2      -2.686  42.188  28.382  0.00  0.00    -0.004 A 
ENDBRANCH  49  50
ENDBRANCH  35  49
ENDBRANCH  31  35
ENDBRANCH  30  33
BRANCH  30  56
ATOM     56  CB  GLU A   3      -5.397  36.658  27.193  0.00  0.00    +0.041 C 
BRANCH  56  57
ATOM     57  CG  GLU A   3      -5.308  35.580  28.278  0.00  0.00    +0.116 C 
BRANCH  57  58
ATOM     58  CD  GLU A   3      -4.081  34.671  28.139  0.00  0.00    +0.365 C 
ATOM     59  OE2 GLU A   3      -3.812  33.895  29.087  0.00  0.00    -0.246 OA
ATOM     60  OE1 GLU A   3      -3.392  34.726  27.092  0.00  0.00    -0.246 OA
ENDBRANCH  57  58
ENDBRANCH  56  57
ENDBRANCH  30  56
ENDBRANCH  26  30
ENDBRANCH   1  27
BRANCH   1  61
ATOM     61  CB  TRP A   4      -2.183  39.551  23.915  0.00  0.00    +0.057 C 
BRANCH  61  62
ATOM     62  CG  TRP A   4      -0.923  38.954  24.533  0.00  0.00    -0.002 A 
ATOM     63  CD2 TRP A   4       0.209  39.666  25.077  0.00  0.00    +0.013 A 
ATOM     64  CE2 TRP A   4       1.129  38.700  25.536  0.00  0.00    +0.056 A 
ATOM     65  CZ2 TRP A   4       2.353  39.046  26.126  0.00  0.00    +0.017 A 
ATOM     66  CH2 TRP A   4       2.641  40.379  26.255  0.00  0.00    +0.001 A 
ATOM     67  CZ3 TRP A   4       1.750  41.365  25.811  0.00  0.00    +0.000 A 
ATOM     68  NE1 TRP A   4       0.587  37.466  25.287  0.00  0.00    -0.352 N 
ATOM     69  HE1 TRP A   4       1.034  36.554  25.513  0.00  0.00    +0.166 HD
ATOM     70  CE3 TRP A   4       0.527  41.021  25.223  0.00  0.00    +0.001 A 
ATOM     71  CD1 TRP A   4      -0.642  37.626  24.691  0.00  0.00    +0.068 A 
ENDBRANCH  61  62
ENDBRANCH   1  61
TORSDOF 27
REMARK  Name = ../refined-set-2016/3wq6/3wq6_pocket.pdb
REMARK  244 active torsions:
REMARK  status: ('A' for Active; 'I' for Inactive)
REMARK    1  A    between atoms: _1  and  _3
REMARK    2  A    between atoms: _3  and  _4
REMARK    3  A    between atoms: _7  and  _9
REMARK    4  A    between atoms: _9  and  _10
REMARK    5  A    between atoms: _9  and  _12
REMARK    6  A    between atoms: _12  and  _13
REMARK    7  A    between atoms: _15  and  _17
REMARK    8  A    between atoms: _17  and  _18
REMARK    9  A    between atoms: _17  and  _20
REMARK   10  A    between atoms: _20  and  _21
REMARK   11  A    between atoms: _23  and  _25
REMARK   12  A    between atoms: _25  and  _26
REMARK   13  A    between atoms: _29  and  _31
REMARK   14  A    between atoms: _31  and  _32
REMARK   15  A    between atoms: _31  and  _34
REMARK   16  A    between atoms: _34  and  _35
REMARK   17  A    between atoms: _40  and  _41
REMARK   18  A    between atoms: _43  and  _45
REMARK   19  A    between atoms: _45  and  _46
REMARK   20  A    between atoms: _45  and  _48
REMARK   21  A    between atoms: _48  and  _49
REMARK   22  A    between atoms: _49  and  _50
REMARK   23  A    between atoms: _55  and  _57
REMARK   24  A    between atoms: _57  and  _58
REMARK   25  A    between atoms: _57  and  _60
REMARK   26  A    between atoms: _60  and  _61
REMARK   27  A    between atoms: _67  and  _69
REMARK   28  A    between atoms: _69  and  _70
REMARK   29  A    between atoms: _69  and  _72
REMARK   30  A    between atoms: _72  and  _73
REMARK   31  A    between atoms: _83  and  _85
REMARK   32  A    between atoms: _85  and  _86
REMARK   33  A    between atoms: _85  and  _88
REMARK   34  A    between atoms: _88  and  _89
REMARK   35  A    between atoms: _91  and  _93
REMARK   36  A    between atoms: _93  and  _94
REMARK   37  A    between atoms: _93  and  _96
REMARK   38  A    between atoms: _96  and  _97
REMARK   39  A    between atoms: _97  and  _98
REMARK   40  A    between atoms: _98  and  _99
REMARK   41  A    between atoms: _108  and  _110
REMARK   42  A    between atoms: _110  and  _111
REMARK   43  A    between atoms: _110  and  _113
REMARK   44  A    between atoms: _113  and  _114
REMARK   45  A    between atoms: _117  and  _119
REMARK   46  A    between atoms: _119  and  _120
REMARK   47  A    between atoms: _119  and  _122
REMARK   48  A    between atoms: _122  and  _123
REMARK   49  A    between atoms: _128  and  _130
REMARK   50  A    between atoms: _130  and  _131
REMARK   51  A    between atoms: _130  and  _133
REMARK   52  A    between atoms: _133  and  _134
REMARK   53  A    between atoms: _144  and  _146
REMARK   54  A    between atoms: _146  and  _147
REMARK   55  A    between atoms: _146  and  _149
REMARK   56  A    between atoms: _149  and  _150
REMARK   57  A    between atoms: _155  and  _157
REMARK   58  A    between atoms: _157  and  _158
REMARK   59  A    between atoms: _157  and  _160
REMARK   60  A    between atoms: _160  and  _161
REMARK   61  A    between atoms: _161  and  _162
REMARK   62  A    between atoms: _165  and  _167
REMARK   63  A    between atoms: _167  and  _168
REMARK   64  A    between atoms: _167  and  _170
REMARK   65  A    between atoms: _170  and  _171
REMARK   66  A    between atoms: _181  and  _183
REMARK   67  A    between atoms: _183  and  _184
REMARK   68  A    between atoms: _183  and  _186
REMARK   69  A    between atoms: _186  and  _187
REMARK   70  A    between atoms: _189  and  _191
REMARK   71  A    between atoms: _191  and  _192
REMARK   72  A    between atoms: _191  and  _194
REMARK   73  A    between atoms: _194  and  _195
REMARK   74  A    between atoms: _200  and  _201
REMARK   75  A    between atoms: _203  and  _205
REMARK   76  A    between atoms: _205  and  _206
REMARK   77  A    between atoms: _205  and  _208
REMARK   78  A    between atoms: _208  and  _209
REMARK   79  A    between atoms: _211  and  _213
REMARK   80  A    between atoms: _213  and  _214
REMARK   81  A    between atoms: _213  and  _216
REMARK   82  A    between atoms: _216  and  _217
REMARK   83  A    between atoms: _222  and  _223
REMARK   84  A    between atoms: _225  and  _227
REMARK   85  A    between atoms: _227  and  _228
REMARK   86  A    between atoms: _230  and  _232
REMARK   87  A    between atoms: _232  and  _233
REMARK   88  A    between atoms: _235  and  _237
REMARK   89  A    between atoms: _237  and  _238
REMARK   90  A    between atoms: _237  and  _240
REMARK   91  A    between atoms: _240  and  _241
REMARK   92  A    between atoms: _246  and  _247
REMARK   93  A    between atoms: _249  and  _251
REMARK   94  A    between atoms: _251  and  _252
REMARK   95  A    between atoms: _251  and  _254
REMARK   96  A    between atoms: _254  and  _255
REMARK   97  A    between atoms: _258  and  _260
REMARK   98  A    between atoms: _260  and  _261
REMARK   99  A    between atoms: _264  and  _266
REMARK  100  A    between atoms: _266  and  _267
REMARK  101  A    between atoms: _269  and  _271
REMARK  102  A    between atoms: _271  and  _272
REMARK  103  A    between atoms: _271  and  _274
REMARK  104  A    between atoms: _274  and  _275
REMARK  105  A    between atoms: _278  and  _280
REMARK  106  A    between atoms: _280  and  _281
REMARK  107  A    between atoms: _280  and  _283
REMARK  108  A    between atoms: _283  and  _284
REMARK  109  A    between atoms: _287  and  _289
REMARK  110  A    between atoms: _289  and  _290
REMARK  111  A    between atoms: _289  and  _292
REMARK  112  A    between atoms: _292  and  _293
REMARK  113  A    between atoms: _296  and  _298
REMARK  114  A    between atoms: _298  and  _299
REMARK  115  A    between atoms: _298  and  _301
REMARK  116  A    between atoms: _304  and  _306
REMARK  117  A    between atoms: _306  and  _307
REMARK  118  A    between atoms: _306  and  _309
REMARK  119  A    between atoms: _309  and  _310
REMARK  120  A    between atoms: _313  and  _315
REMARK  121  A    between atoms: _315  and  _316
REMARK  122  A    between atoms: _315  and  _318
REMARK  123  A    between atoms: _318  and  _319
REMARK  124  A    between atoms: _324  and  _325
REMARK  125  A    between atoms: _327  and  _329
REMARK  126  A    between atoms: _329  and  _330
REMARK  127  A    between atoms: _329  and  _332
REMARK  128  A    between atoms: _332  and  _333
REMARK  129  A    between atoms: _333  and  _334
REMARK  130  A    between atoms: _336  and  _338
REMARK  131  A    between atoms: _338  and  _339
REMARK  132  A    between atoms: _338  and  _341
REMARK  133  A    between atoms: _341  and  _342
REMARK  134  A    between atoms: _347  and  _349
REMARK  135  A    between atoms: _349  and  _350
REMARK  136  A    between atoms: _349  and  _352
REMARK  137  A    between atoms: _352  and  _353
REMARK  138  A    between atoms: _358  and  _359
REMARK  139  A    between atoms: _361  and  _363
REMARK  140  A    between atoms: _363  and  _364
REMARK  141  A    between atoms: _363  and  _366
REMARK  142  A    between atoms: _366  and  _367
REMARK  143  A    between atoms: _372  and  _373
REMARK  144  A    between atoms: _375  and  _377
REMARK  145  A    between atoms: _377  and  _378
REMARK  146  A    between atoms: _377  and  _380
REMARK  147  A    between atoms: _380  and  _381
REMARK  148  A    between atoms: _384  and  _386
REMARK  149  A    between atoms: _386  and  _387
REMARK  150  A    between atoms: _386  and  _389
REMARK  151  A    between atoms: _389  and  _390
REMARK  152  A    between atoms: _395  and  _397
REMARK  153  A    between atoms: _397  and  _398
REMARK  154  A    between atoms: _397  and  _400
REMARK  155  A    between atoms: _400  and  _401
REMARK  156  A    between atoms: _401  and  _402
REMARK  157  A    between atoms: _407  and  _409
REMARK  158  A    between atoms: _409  and  _410
REMARK  159  A    between atoms: _409  and  _412
REMARK  160  A    between atoms: _412  and  _413
REMARK  161  A    between atoms: _416  and  _418
REMARK  162  A    between atoms: _418  and  _419
REMARK  163  A    between atoms: _421  and  _423
REMARK  164  A    between atoms: _423  and  _424
REMARK  165  A    between atoms: _423  and  _426
REMARK  166  A    between atoms: _430  and  _431
REMARK  167  A    between atoms: _436  and  _438
REMARK  168  A    between atoms: _438  and  _439
REMARK  169  A    between atoms: _442  and  _444
REMARK  170  A    between atoms: _444  and  _445
REMARK  171  A    between atoms: _444  and  _447
REMARK  172  A    between atoms: _447  and  _448
REMARK  173  A    between atoms: _454  and  _456
REMARK  174  A    between atoms: _456  and  _457
REMARK  175  A    between atoms: _456  and  _459
REMARK  176  A    between atoms: _459  and  _460
REMARK  177  A    between atoms: _463  and  _465
REMARK  178  A    between atoms: _465  and  _466
REMARK  179  A    between atoms: _465  and  _468
REMARK  180  A    between atoms: _468  and  _469
REMARK  181  A    between atoms: _469  and  _470
REMARK  182  A    between atoms: _473  and  _475
REMARK  183  A    between atoms: _475  and  _476
REMARK  184  A    between atoms: _475  and  _478
REMARK  185  A    between atoms: _478  and  _479
REMARK  186  A    between atoms: _484  and  _486
REMARK  187  A    between atoms: _486  and  _487
REMARK  188  A    between atoms: _489  and  _491
REMARK  189  A    between atoms: _491  and  _492
REMARK  190  A    between atoms: _491  and  _494
REMARK  191  A    between atoms: _494  and  _495
REMARK  192  A    between atoms: _495  and  _496
REMARK  193  A    between atoms: _498  and  _500
REMARK  194  A    between atoms: _500  and  _501
REMARK  195  A    between atoms: _503  and  _505
REMARK  196  A    between atoms: _505  and  _506
REMARK  197  A    between atoms: _505  and  _508
REMARK  198  A    between atoms: _508  and  _509
REMARK  199  A    between atoms: _519  and  _521
REMARK  200  A    between atoms: _521  and  _522
REMARK  201  A    between atoms: _525  and  _527
REMARK  202  A    between atoms: _527  and  _528
REMARK  203  A    between atoms: _527  and  _530
REMARK  204  A    between atoms: _530  and  _531
REMARK  205  A    between atoms: _534  and  _536
REMARK  206  A    between atoms: _536  and  _537
REMARK  207  A    between atoms: _536  and  _539
REMARK  208  A    between atoms: _539  and  _540
REMARK  209  A    between atoms: _545  and  _547
REMARK  210  A    between atoms: _547  and  _548
REMARK  211  A    between atoms: _547  and  _550
REMARK  212  A    between atoms: _550  and  _551
REMARK  213  A    between atoms: _557  and  _559
REMARK  214  A    between atoms: _559  and  _560
REMARK  215  A    between atoms: _559  and  _562
REMARK  216  A    between atoms: _562  and  _563
REMARK  217  A    between atoms: _563  and  _564
REMARK  218  A    between atoms: _567  and  _569
REMARK  219  A    between atoms: _569  and  _570
REMARK  220  A    between atoms: _569  and  _572
REMARK  221  A    between atoms: _572  and  _573
REMARK  222  A    between atoms: _583  and  _585
REMARK  223  A    between atoms: _585  and  _586
REMARK  224  A    between atoms: _585  and  _588
REMARK  225  A    between atoms: _588  and  _589
REMARK  226  A    between atoms: _592  and  _594
REMARK  227  A    between atoms: _594  and  _595
REMARK  228  A    between atoms: _594  and  _597
REMARK  229  A    between atoms: _597  and  _598
REMARK  230  A    between atoms: _600  and  _602
REMARK  231  A    between atoms: _602  and  _603
REMARK  232  A    between atoms: _605  and  _607
REMARK  233  A    between atoms: _607  and  _608
REMARK  234  A    between atoms: _607  and  _610
REMARK  235  A    between atoms: _610  and  _611
REMARK  236  A    between atoms: _614  and  _616
REMARK  237  A    between atoms: _616  and  _617
REMARK  238  A    between atoms: _616  and  _619
REMARK  239  A    between atoms: _619  and  _620
REMARK  240  A    between atoms: _620  and  _621
REMARK  241  A    between atoms: _626  and  _628
REMARK  242  A    between atoms: _628  and  _629
REMARK  243  A    between atoms: _628  and  _631
REMARK  244  A    between atoms: _631  and  _632
REMARK                            x       y       z     vdW  Elec       q    Type
REMARK                         _______ _______ _______ _____ _____    ______ ____
ROOT
ATOM      1  C   THR A   1     -11.768  36.337  28.253  0.00  0.00    +0.241 C 
ATOM      2  N   GLN A   2     -10.498  35.970  28.379  0.00  0.00    -0.298 N 
ATOM      3  H   GLN A   2      -9.767  36.688  28.557  0.00  0.00    +0.150 HD
ATOM      4  O   THR A   1     -12.675  35.528  28.047  0.00  0.00    -0.274 OA
ENDROOT
BRANCH   1   5
ATOM      5  CA  THR A   1     -12.070  37.824  28.346  0.00  0.00    +0.172 C 
BRANCH   5   6
ATOM      6  N   THR A   1     -10.916  38.625  28.759  0.00  0.00    -0.236 NA
ATOM      7  H   THR A   1     -10.347  39.115  28.039  0.00  0.00    +0.142 HD
ENDBRANCH   5   6
BRANCH   5   8
ATOM      8  CB  THR A   1     -12.614  38.257  26.980  0.00  0.00    +0.135 C 
ATOM      9  CG2 THR A   1     -13.045  39.685  27.022  0.00  0.00    +0.034 C 
BRANCH   8  10
ATOM     10  OG1 THR A   1     -11.594  38.095  25.985  0.00  0.00    -0.383 OA
ATOM     11  HG1 THR A   1     -10.812  38.654  26.221  0.00  0.00    +0.210 HD
ENDBRANCH   8  10
ENDBRANCH   5   8
ENDBRANCH   1   5
BRANCH   2  12
ATOM     12  CA  GLN A   2     -10.125  34.566  28.269  0.00  0.00    +0.137 C 
BRANCH  12  13
ATOM     13  C   GLN A   2      -9.217  34.148  29.418  0.00  0.00    +0.227 C 
ATOM     14  O   GLN A   2      -8.195  34.790  29.674  0.00  0.00    -0.286 OA
ENDBRANCH  12  13
BRANCH  12  15
ATOM     15  CB  GLN A   2      -9.452  34.294  26.918  0.00  0.00    +0.037 C 
BRANCH  15  16
ATOM     16  CG  GLN A   2     -10.443  34.319  25.764  0.00  0.00    +0.087 C 
BRANCH  16  17
ATOM     17  CD  GLN A   2      -9.790  34.275  24.394  0.00  0.00    +0.219 C 
ATOM     18  OE1 GLN A   2      -8.566  34.168  24.266  0.00  0.00    -0.275 OA
ATOM     19  NE2 GLN A   2     -10.617  34.353  23.354  0.00  0.00    -0.329 N 
ATOM     20 HE21 GLN A   2     -11.641  34.442  23.510  0.00  0.00    +0.145 HD
ATOM     21 HE22 GLN A   2     -10.239  34.325  22.386  0.00  0.00    +0.145 HD
ENDBRANCH  16  17
ENDBRANCH  15  16
ENDBRANCH  12  15
ENDBRANCH   2  12
TORSDOF 9
REMARK  Name = ../refined-set-2016/3wq6/3wq6_pocket.pdb
REMARK  244 active torsions:
REMARK  status: ('A' for Active; 'I' for Inactive)
REMARK    1  A    between atoms: _1  and  _3
REMARK    2  A    between atoms: _3  and  _4
REMARK    3  A    between atoms: _7  and  _9
REMARK    4  A    between atoms: _9  and  _10
REMARK    5  A    between atoms: _9  and  _12
REMARK    6  A    between atoms: _12  and  _13
REMARK    7  A    between atoms: _15  and  _17
REMARK    8  A    between atoms: _17  and  _18
REMARK    9  A    between atoms: _17  and  _20
REMARK   10  A    between atoms: _20  and  _21
REMARK   11  A    between atoms: _23  and  _25
REMARK   12  A    between atoms: _25  and  _26
REMARK   13  A    between atoms: _29  and  _31
REMARK   14  A    between atoms: _31  and  _32
REMARK   15  A    between atoms: _31  and  _34
REMARK   16  A    between atoms: _34  and  _35
REMARK   17  A    between atoms: _40  and  _41
REMARK   18  A    between atoms: _43  and  _45
REMARK   19  A    between atoms: _45  and  _46
REMARK   20  A    between atoms: _45  and  _48
REMARK   21  A    between atoms: _48  and  _49
REMARK   22  A    between atoms: _49  and  _50
REMARK   23  A    between atoms: _55  and  _57
REMARK   24  A    between atoms: _57  and  _58
REMARK   25  A    between atoms: _57  and  _60
REMARK   26  A    between atoms: _60  and  _61
REMARK   27  A    between atoms: _67  and  _69
REMARK   28  A    between atoms: _69  and  _70
REMARK   29  A    between atoms: _69  and  _72
REMARK   30  A    between atoms: _72  and  _73
REMARK   31  A    between atoms: _83  and  _85
REMARK   32  A    between atoms: _85  and  _86
REMARK   33  A    between atoms: _85  and  _88
REMARK   34  A    between atoms: _88  and  _89
REMARK   35  A    between atoms: _91  and  _93
REMARK   36  A    between atoms: _93  and  _94
REMARK   37  A    between atoms: _93  and  _96
REMARK   38  A    between atoms: _96  and  _97
REMARK   39  A    between atoms: _97  and  _98
REMARK   40  A    between atoms: _98  and  _99
REMARK   41  A    between atoms: _108  and  _110
REMARK   42  A    between atoms: _110  and  _111
REMARK   43  A    between atoms: _110  and  _113
REMARK   44  A    between atoms: _113  and  _114
REMARK   45  A    between atoms: _117  and  _119
REMARK   46  A    between atoms: _119  and  _120
REMARK   47  A    between atoms: _119  and  _122
REMARK   48  A    between atoms: _122  and  _123
REMARK   49  A    between atoms: _128  and  _130
REMARK   50  A    between atoms: _130  and  _131
REMARK   51  A    between atoms: _130  and  _133
REMARK   52  A    between atoms: _133  and  _134
REMARK   53  A    between atoms: _144  and  _146
REMARK   54  A    between atoms: _146  and  _147
REMARK   55  A    between atoms: _146  and  _149
REMARK   56  A    between atoms: _149  and  _150
REMARK   57  A    between atoms: _155  and  _157
REMARK   58  A    between atoms: _157  and  _158
REMARK   59  A    between atoms: _157  and  _160
REMARK   60  A    between atoms: _160  and  _161
REMARK   61  A    between atoms: _161  and  _162
REMARK   62  A    between atoms: _165  and  _167
REMARK   63  A    between atoms: _167  and  _168
REMARK   64  A    between atoms: _167  and  _170
REMARK   65  A    between atoms: _170  and  _171
REMARK   66  A    between atoms: _181  and  _183
REMARK   67  A    between atoms: _183  and  _184
REMARK   68  A    between atoms: _183  and  _186
REMARK   69  A    between atoms: _186  and  _187
REMARK   70  A    between atoms: _189  and  _191
REMARK   71  A    between atoms: _191  and  _192
REMARK   72  A    between atoms: _191  and  _194
REMARK   73  A    between atoms: _194  and  _195
REMARK   74  A    between atoms: _200  and  _201
REMARK   75  A    between atoms: _203  and  _205
REMARK   76  A    between atoms: _205  and  _206
REMARK   77  A    between atoms: _205  and  _208
REMARK   78  A    between atoms: _208  and  _209
REMARK   79  A    between atoms: _211  and  _213
REMARK   80  A    between atoms: _213  and  _214
REMARK   81  A    between atoms: _213  and  _216
REMARK   82  A    between atoms: _216  and  _217
REMARK   83  A    between atoms: _222  and  _223
REMARK   84  A    between atoms: _225  and  _227
REMARK   85  A    between atoms: _227  and  _228
REMARK   86  A    between atoms: _230  and  _232
REMARK   87  A    between atoms: _232  and  _233
REMARK   88  A    between atoms: _235  and  _237
REMARK   89  A    between atoms: _237  and  _238
REMARK   90  A    between atoms: _237  and  _240
REMARK   91  A    between atoms: _240  and  _241
REMARK   92  A    between atoms: _246  and  _247
REMARK   93  A    between atoms: _249  and  _251
REMARK   94  A    between atoms: _251  and  _252
REMARK   95  A    between atoms: _251  and  _254
REMARK   96  A    between atoms: _254  and  _255
REMARK   97  A    between atoms: _258  and  _260
REMARK   98  A    between atoms: _260  and  _261
REMARK   99  A    between atoms: _264  and  _266
REMARK  100  A    between atoms: _266  and  _267
REMARK  101  A    between atoms: _269  and  _271
REMARK  102  A    between atoms: _271  and  _272
REMARK  103  A    between atoms: _271  and  _274
REMARK  104  A    between atoms: _274  and  _275
REMARK  105  A    between atoms: _278  and  _280
REMARK  106  A    between atoms: _280  and  _281
REMARK  107  A    between atoms: _280  and  _283
REMARK  108  A    between atoms: _283  and  _284
REMARK  109  A    between atoms: _287  and  _289
REMARK  110  A    between atoms: _289  and  _290
REMARK  111  A    between atoms: _289  and  _292
REMARK  112  A    between atoms: _292  and  _293
REMARK  113  A    between atoms: _296  and  _298
REMARK  114  A    between atoms: _298  and  _299
REMARK  115  A    between atoms: _298  and  _301
REMARK  116  A    between atoms: _304  and  _306
REMARK  117  A    between atoms: _306  and  _307
REMARK  118  A    between atoms: _306  and  _309
REMARK  119  A    between atoms: _309  and  _310
REMARK  120  A    between atoms: _313  and  _315
REMARK  121  A    between atoms: _315  and  _316
REMARK  122  A    between atoms: _315  and  _318
REMARK  123  A    between atoms: _318  and  _319
REMARK  124  A    between atoms: _324  and  _325
REMARK  125  A    between atoms: _327  and  _329
REMARK  126  A    between atoms: _329  and  _330
REMARK  127  A    between atoms: _329  and  _332
REMARK  128  A    between atoms: _332  and  _333
REMARK  129  A    between atoms: _333  and  _334
REMARK  130  A    between atoms: _336  and  _338
REMARK  131  A    between atoms: _338  and  _339
REMARK  132  A    between atoms: _338  and  _341
REMARK  133  A    between atoms: _341  and  _342
REMARK  134  A    between atoms: _347  and  _349
REMARK  135  A    between atoms: _349  and  _350
REMARK  136  A    between atoms: _349  and  _352
REMARK  137  A    between atoms: _352  and  _353
REMARK  138  A    between atoms: _358  and  _359
REMARK  139  A    between atoms: _361  and  _363
REMARK  140  A    between atoms: _363  and  _364
REMARK  141  A    between atoms: _363  and  _366
REMARK  142  A    between atoms: _366  and  _367
REMARK  143  A    between atoms: _372  and  _373
REMARK  144  A    between atoms: _375  and  _377
REMARK  145  A    between atoms: _377  and  _378
REMARK  146  A    between atoms: _377  and  _380
REMARK  147  A    between atoms: _380  and  _381
REMARK  148  A    between atoms: _384  and  _386
REMARK  149  A    between atoms: _386  and  _387
REMARK  150  A    between atoms: _386  and  _389
REMARK  151  A    between atoms: _389  and  _390
REMARK  152  A    between atoms: _395  and  _397
REMARK  153  A    between atoms: _397  and  _398
REMARK  154  A    between atoms: _397  and  _400
REMARK  155  A    between atoms: _400  and  _401
REMARK  156  A    between atoms: _401  and  _402
REMARK  157  A    between atoms: _407  and  _409
REMARK  158  A    between atoms: _409  and  _410
REMARK  159  A    between atoms: _409  and  _412
REMARK  160  A    between atoms: _412  and  _413
REMARK  161  A    between atoms: _416  and  _418
REMARK  162  A    between atoms: _418  and  _419
REMARK  163  A    between atoms: _421  and  _423
REMARK  164  A    between atoms: _423  and  _424
REMARK  165  A    between atoms: _423  and  _426
REMARK  166  A    between atoms: _430  and  _431
REMARK  167  A    between atoms: _436  and  _438
REMARK  168  A    between atoms: _438  and  _439
REMARK  169  A    between atoms: _442  and  _444
REMARK  170  A    between atoms: _444  and  _445
REMARK  171  A    between atoms: _444  and  _447
REMARK  172  A    between atoms: _447  and  _448
REMARK  173  A    between atoms: _454  and  _456
REMARK  174  A    between atoms: _456  and  _457
REMARK  175  A    between atoms: _456  and  _459
REMARK  176  A    between atoms: _459  and  _460
REMARK  177  A    between atoms: _463  and  _465
REMARK  178  A    between atoms: _465  and  _466
REMARK  179  A    between atoms: _465  and  _468
REMARK  180  A    between atoms: _468  and  _469
REMARK  181  A    between atoms: _469  and  _470
REMARK  182  A    between atoms: _473  and  _475
REMARK  183  A    between atoms: _475  and  _476
REMARK  184  A    between atoms: _475  and  _478
REMARK  185  A    between atoms: _478  and  _479
REMARK  186  A    between atoms: _484  and  _486
REMARK  187  A    between atoms: _486  and  _487
REMARK  188  A    between atoms: _489  and  _491
REMARK  189  A    between atoms: _491  and  _492
REMARK  190  A    between atoms: _491  and  _494
REMARK  191  A    between atoms: _494  and  _495
REMARK  192  A    between atoms: _495  and  _496
REMARK  193  A    between atoms: _498  and  _500
REMARK  194  A    between atoms: _500  and  _501
REMARK  195  A    between atoms: _503  and  _505
REMARK  196  A    between atoms: _505  and  _506
REMARK  197  A    between atoms: _505  and  _508
REMARK  198  A    between atoms: _508  and  _509
REMARK  199  A    between atoms: _519  and  _521
REMARK  200  A    between atoms: _521  and  _522
REMARK  201  A    between atoms: _525  and  _527
REMARK  202  A    between atoms: _527  and  _528
REMARK  203  A    between atoms: _527  and  _530
REMARK  204  A    between atoms: _530  and  _531
REMARK  205  A    between atoms: _534  and  _536
REMARK  206  A    between atoms: _536  and  _537
REMARK  207  A    between atoms: _536  and  _539
REMARK  208  A    between atoms: _539  and  _540
REMARK  209  A    between atoms: _545  and  _547
REMARK  210  A    between atoms: _547  and  _548
REMARK  211  A    between atoms: _547  and  _550
REMARK  212  A    between atoms: _550  and  _551
REMARK  213  A    between atoms: _557  and  _559
REMARK  214  A    between atoms: _559  and  _560
REMARK  215  A    between atoms: _559  and  _562
REMARK  216  A    between atoms: _562  and  _563
REMARK  217  A    between atoms: _563  and  _564
REMARK  218  A    between atoms: _567  and  _569
REMARK  219  A    between atoms: _569  and  _570
REMARK  220  A    between atoms: _569  and  _572
REMARK  221  A    between atoms: _572  and  _573
REMARK  222  A    between atoms: _583  and  _585
REMARK  223  A    between atoms: _585  and  _586
REMARK  224  A    between atoms: _585  and  _588
REMARK  225  A    between atoms: _588  and  _589
REMARK  226  A    between atoms: _592  and  _594
REMARK  227  A    between atoms: _594  and  _595
REMARK  228  A    between atoms: _594  and  _597
REMARK  229  A    between atoms: _597  and  _598
REMARK  230  A    between atoms: _600  and  _602
REMARK  231  A    between atoms: _602  and  _603
REMARK  232  A    between atoms: _605  and  _607
REMARK  233  A    between atoms: _607  and  _608
REMARK  234  A    between atoms: _607  and  _610
REMARK  235  A    between atoms: _610  and  _611
REMARK  236  A    between atoms: _614  and  _616
REMARK  237  A    between atoms: _616  and  _617
REMARK  238  A    between atoms: _616  and  _619
REMARK  239  A    between atoms: _619  and  _620
REMARK  240  A    between atoms: _620  and  _621
REMARK  241  A    between atoms: _626  and  _628
REMARK  242  A    between atoms: _628  and  _629
REMARK  243  A    between atoms: _628  and  _631
REMARK  244  A    between atoms: _631  and  _632
REMARK                            x       y       z     vdW  Elec       q    Type
REMARK                         _______ _______ _______ _____ _____    ______ ____
ROOT
ATOM      1  CB  PHE A   1      -4.771  30.663  29.807  0.00  0.00    +0.051 C 
ENDROOT
BRANCH   1   2
ATOM      2  CG  PHE A   1      -5.133  30.602  28.344  0.00  0.00    -0.020 A 
ATOM      3  CD2 PHE A   1      -5.894  31.602  27.763  0.00  0.00    -0.004 A 
ATOM      4  CE2 PHE A   1      -6.221  31.555  26.416  0.00  0.00    -0.000 A 
ATOM      5  CZ  PHE A   1      -5.775  30.500  25.632  0.00  0.00    -0.000 A 
ATOM      6  CE1 PHE A   1      -5.009  29.503  26.195  0.00  0.00    -0.000 A 
ATOM      7  CD1 PHE A   1      -4.683  29.559  27.548  0.00  0.00    -0.004 A 
ENDBRANCH   1   2
BRANCH   1   8
ATOM      8  CA  PHE A   1      -5.913  30.263  30.757  0.00  0.00    +0.137 C 
BRANCH   8   9
ATOM      9  N   PHE A   1      -6.781  31.409  31.037  0.00  0.00    -0.239 NA
ATOM     10  H   PHE A   1      -6.346  32.324  31.273  0.00  0.00    +0.142 HD
ENDBRANCH   8   9
BRANCH   8  11
ATOM     11  C   PHE A   1      -5.307  29.657  32.024  0.00  0.00    +0.224 C 
ATOM     12  O   PHE A   1      -4.633  28.627  31.967  0.00  0.00    -0.287 OA
ENDBRANCH   8  11
ENDBRANCH   1   8
TORSDOF 4
REMARK  Name = ../refined-set-2016/3wq6/3wq6_pocket.pdb
REMARK  244 active torsions:
REMARK  status: ('A' for Active; 'I' for Inactive)
REMARK    1  A    between atoms: _1  and  _3
REMARK    2  A    between atoms: _3  and  _4
REMARK    3  A    between atoms: _7  and  _9
REMARK    4  A    between atoms: _9  and  _10
REMARK    5  A    between atoms: _9  and  _12
REMARK    6  A    between atoms: _12  and  _13
REMARK    7  A    between atoms: _15  and  _17
REMARK    8  A    between atoms: _17  and  _18
REMARK    9  A    between atoms: _17  and  _20
REMARK   10  A    between atoms: _20  and  _21
REMARK   11  A    between atoms: _23  and  _25
REMARK   12  A    between atoms: _25  and  _26
REMARK   13  A    between atoms: _29  and  _31
REMARK   14  A    between atoms: _31  and  _32
REMARK   15  A    between atoms: _31  and  _34
REMARK   16  A    between atoms: _34  and  _35
REMARK   17  A    between atoms: _40  and  _41
REMARK   18  A    between atoms: _43  and  _45
REMARK   19  A    between atoms: _45  and  _46
REMARK   20  A    between atoms: _45  and  _48
REMARK   21  A    between atoms: _48  and  _49
REMARK   22  A    between atoms: _49  and  _50
REMARK   23  A    between atoms: _55  and  _57
REMARK   24  A    between atoms: _57  and  _58
REMARK   25  A    between atoms: _57  and  _60
REMARK   26  A    between atoms: _60  and  _61
REMARK   27  A    between atoms: _67  and  _69
REMARK   28  A    between atoms: _69  and  _70
REMARK   29  A    between atoms: _69  and  _72
REMARK   30  A    between atoms: _72  and  _73
REMARK   31  A    between atoms: _83  and  _85
REMARK   32  A    between atoms: _85  and  _86
REMARK   33  A    between atoms: _85  and  _88
REMARK   34  A    between atoms: _88  and  _89
REMARK   35  A    between atoms: _91  and  _93
REMARK   36  A    between atoms: _93  and  _94
REMARK   37  A    between atoms: _93  and  _96
REMARK   38  A    between atoms: _96  and  _97
REMARK   39  A    between atoms: _97  and  _98
REMARK   40  A    between atoms: _98  and  _99
REMARK   41  A    between atoms: _108  and  _110
REMARK   42  A    between atoms: _110  and  _111
REMARK   43  A    between atoms: _110  and  _113
REMARK   44  A    between atoms: _113  and  _114
REMARK   45  A    between atoms: _117  and  _119
REMARK   46  A    between atoms: _119  and  _120
REMARK   47  A    between atoms: _119  and  _122
REMARK   48  A    between atoms: _122  and  _123
REMARK   49  A    between atoms: _128  and  _130
REMARK   50  A    between atoms: _130  and  _131
REMARK   51  A    between atoms: _130  and  _133
REMARK   52  A    between atoms: _133  and  _134
REMARK   53  A    between atoms: _144  and  _146
REMARK   54  A    between atoms: _146  and  _147
REMARK   55  A    between atoms: _146  and  _149
REMARK   56  A    between atoms: _149  and  _150
REMARK   57  A    between atoms: _155  and  _157
REMARK   58  A    between atoms: _157  and  _158
REMARK   59  A    between atoms: _157  and  _160
REMARK   60  A    between atoms: _160  and  _161
REMARK   61  A    between atoms: _161  and  _162
REMARK   62  A    between atoms: _165  and  _167
REMARK   63  A    between atoms: _167  and  _168
REMARK   64  A    between atoms: _167  and  _170
REMARK   65  A    between atoms: _170  and  _171
REMARK   66  A    between atoms: _181  and  _183
REMARK   67  A    between atoms: _183  and  _184
REMARK   68  A    between atoms: _183  and  _186
REMARK   69  A    between atoms: _186  and  _187
REMARK   70  A    between atoms: _189  and  _191
REMARK   71  A    between atoms: _191  and  _192
REMARK   72  A    between atoms: _191  and  _194
REMARK   73  A    between atoms: _194  and  _195
REMARK   74  A    between atoms: _200  and  _201
REMARK   75  A    between atoms: _203  and  _205
REMARK   76  A    between atoms: _205  and  _206
REMARK   77  A    between atoms: _205  and  _208
REMARK   78  A    between atoms: _208  and  _209
REMARK   79  A    between atoms: _211  and  _213
REMARK   80  A    between atoms: _213  and  _214
REMARK   81  A    between atoms: _213  and  _216
REMARK   82  A    between atoms: _216  and  _217
REMARK   83  A    between atoms: _222  and  _223
REMARK   84  A    between atoms: _225  and  _227
REMARK   85  A    between atoms: _227  and  _228
REMARK   86  A    between atoms: _230  and  _232
REMARK   87  A    between atoms: _232  and  _233
REMARK   88  A    between atoms: _235  and  _237
REMARK   89  A    between atoms: _237  and  _238
REMARK   90  A    between atoms: _237  and  _240
REMARK   91  A    between atoms: _240  and  _241
REMARK   92  A    between atoms: _246  and  _247
REMARK   93  A    between atoms: _249  and  _251
REMARK   94  A    between atoms: _251  and  _252
REMARK   95  A    between atoms: _251  and  _254
REMARK   96  A    between atoms: _254  and  _255
REMARK   97  A    between atoms: _258  and  _260
REMARK   98  A    between atoms: _260  and  _261
REMARK   99  A    between atoms: _264  and  _266
REMARK  100  A    between atoms: _266  and  _267
REMARK  101  A    between atoms: _269  and  _271
REMARK  102  A    between atoms: _271  and  _272
REMARK  103  A    between atoms: _271  and  _274
REMARK  104  A    between atoms: _274  and  _275
REMARK  105  A    between atoms: _278  and  _280
REMARK  106  A    between atoms: _280  and  _281
REMARK  107  A    between atoms: _280  and  _283
REMARK  108  A    between atoms: _283  and  _284
REMARK  109  A    between atoms: _287  and  _289
REMARK  110  A    between atoms: _289  and  _290
REMARK  111  A    between atoms: _289  and  _292
REMARK  112  A    between atoms: _292  and  _293
REMARK  113  A    between atoms: _296  and  _298
REMARK  114  A    between atoms: _298  and  _299
REMARK  115  A    between atoms: _298  and  _301
REMARK  116  A    between atoms: _304  and  _306
REMARK  117  A    between atoms: _306  and  _307
REMARK  118  A    between atoms: _306  and  _309
REMARK  119  A    between atoms: _309  and  _310
REMARK  120  A    between atoms: _313  and  _315
REMARK  121  A    between atoms: _315  and  _316
REMARK  122  A    between atoms: _315  and  _318
REMARK  123  A    between atoms: _318  and  _319
REMARK  124  A    between atoms: _324  and  _325
REMARK  125  A    between atoms: _327  and  _329
REMARK  126  A    between atoms: _329  and  _330
REMARK  127  A    between atoms: _329  and  _332
REMARK  128  A    between atoms: _332  and  _333
REMARK  129  A    between atoms: _333  and  _334
REMARK  130  A    between atoms: _336  and  _338
REMARK  131  A    between atoms: _338  and  _339
REMARK  132  A    between atoms: _338  and  _341
REMARK  133  A    between atoms: _341  and  _342
REMARK  134  A    between atoms: _347  and  _349
REMARK  135  A    between atoms: _349  and  _350
REMARK  136  A    between atoms: _349  and  _352
REMARK  137  A    between atoms: _352  and  _353
REMARK  138  A    between atoms: _358  and  _359
REMARK  139  A    between atoms: _361  and  _363
REMARK  140  A    between atoms: _363  and  _364
REMARK  141  A    between atoms: _363  and  _366
REMARK  142  A    between atoms: _366  and  _367
REMARK  143  A    between atoms: _372  and  _373
REMARK  144  A    between atoms: _375  and  _377
REMARK  145  A    between atoms: _377  and  _378
REMARK  146  A    between atoms: _377  and  _380
REMARK  147  A    between atoms: _380  and  _381
REMARK  148  A    between atoms: _384  and  _386
REMARK  149  A    between atoms: _386  and  _387
REMARK  150  A    between atoms: _386  and  _389
REMARK  151  A    between atoms: _389  and  _390
REMARK  152  A    between atoms: _395  and  _397
REMARK  153  A    between atoms: _397  and  _398
REMARK  154  A    between atoms: _397  and  _400
REMARK  155  A    between atoms: _400  and  _401
REMARK  156  A    between atoms: _401  and  _402
REMARK  157  A    between atoms: _407  and  _409
REMARK  158  A    between atoms: _409  and  _410
REMARK  159  A    between atoms: _409  and  _412
REMARK  160  A    between atoms: _412  and  _413
REMARK  161  A    between atoms: _416  and  _418
REMARK  162  A    between atoms: _418  and  _419
REMARK  163  A    between atoms: _421  and  _423
REMARK  164  A    between atoms: _423  and  _424
REMARK  165  A    between atoms: _423  and  _426
REMARK  166  A    between atoms: _430  and  _431
REMARK  167  A    between atoms: _436  and  _438
REMARK  168  A    between atoms: _438  and  _439
REMARK  169  A    between atoms: _442  and  _444
REMARK  170  A    between atoms: _444  and  _445
REMARK  171  A    between atoms: _444  and  _447
REMARK  172  A    between atoms: _447  and  _448
REMARK  173  A    between atoms: _454  and  _456
REMARK  174  A    between atoms: _456  and  _457
REMARK  175  A    between atoms: _456  and  _459
REMARK  176  A    between atoms: _459  and  _460
REMARK  177  A    between atoms: _463  and  _465
REMARK  178  A    between atoms: _465  and  _466
REMARK  179  A    between atoms: _465  and  _468
REMARK  180  A    between atoms: _468  and  _469
REMARK  181  A    between atoms: _469  and  _470
REMARK  182  A    between atoms: _473  and  _475
REMARK  183  A    between atoms: _475  and  _476
REMARK  184  A    between atoms: _475  and  _478
REMARK  185  A    between atoms: _478  and  _479
REMARK  186  A    between atoms: _484  and  _486
REMARK  187  A    between atoms: _486  and  _487
REMARK  188  A    between atoms: _489  and  _491
REMARK  189  A    between atoms: _491  and  _492
REMARK  190  A    between atoms: _491  and  _494
REMARK  191  A    between atoms: _494  and  _495
REMARK  192  A    between atoms: _495  and  _496
REMARK  193  A    between atoms: _498  and  _500
REMARK  194  A    between atoms: _500  and  _501
REMARK  195  A    between atoms: _503  and  _505
REMARK  196  A    between atoms: _505  and  _506
REMARK  197  A    between atoms: _505  and  _508
REMARK  198  A    between atoms: _508  and  _509
REMARK  199  A    between atoms: _519  and  _521
REMARK  200  A    between atoms: _521  and  _522
REMARK  201  A    between atoms: _525  and  _527
REMARK  202  A    between atoms: _527  and  _528
REMARK  203  A    between atoms: _527  and  _530
REMARK  204  A    between atoms: _530  and  _531
REMARK  205  A    between atoms: _534  and  _536
REMARK  206  A    between atoms: _536  and  _537
REMARK  207  A    between atoms: _536  and  _539
REMARK  208  A    between atoms: _539  and  _540
REMARK  209  A    between atoms: _545  and  _547
REMARK  210  A    between atoms: _547  and  _548
REMARK  211  A    between atoms: _547  and  _550
REMARK  212  A    between atoms: _550  and  _551
REMARK  213  A    between atoms: _557  and  _559
REMARK  214  A    between atoms: _559  and  _560
REMARK  215  A    between atoms: _559  and  _562
REMARK  216  A    between atoms: _562  and  _563
REMARK  217  A    between atoms: _563  and  _564
REMARK  218  A    between atoms: _567  and  _569
REMARK  219  A    between atoms: _569  and  _570
REMARK  220  A    between atoms: _569  and  _572
REMARK  221  A    between atoms: _572  and  _573
REMARK  222  A    between atoms: _583  and  _585
REMARK  223  A    between atoms: _585  and  _586
REMARK  224  A    between atoms: _585  and  _588
REMARK  225  A    between atoms: _588  and  _589
REMARK  226  A    between atoms: _592  and  _594
REMARK  227  A    between atoms: _594  and  _595
REMARK  228  A    between atoms: _594  and  _597
REMARK  229  A    between atoms: _597  and  _598
REMARK  230  A    between atoms: _600  and  _602
REMARK  231  A    between atoms: _602  and  _603
REMARK  232  A    between atoms: _605  and  _607
REMARK  233  A    between atoms: _607  and  _608
REMARK  234  A    between atoms: _607  and  _610
REMARK  235  A    between atoms: _610  and  _611
REMARK  236  A    between atoms: _614  and  _616
REMARK  237  A    between atoms: _616  and  _617
REMARK  238  A    between atoms: _616  and  _619
REMARK  239  A    between atoms: _619  and  _620
REMARK  240  A    between atoms: _620  and  _621
REMARK  241  A    between atoms: _626  and  _628
REMARK  242  A    between atoms: _628  and  _629
REMARK  243  A    between atoms: _628  and  _631
REMARK  244  A    between atoms: _631  and  _632
REMARK                            x       y       z     vdW  Elec       q    Type
REMARK                         _______ _______ _______ _____ _____    ______ ____
ROOT
ATOM      1  O   HOH     1       5.289  40.036  28.672  0.00  0.00    +0.000 OA
ENDROOT
TORSDOF 0
REMARK  Name = ../refined-set-2016/3wq6/3wq6_pocket.pdb
REMARK  244 active torsions:
REMARK  status: ('A' for Active; 'I' for Inactive)
REMARK    1  A    between atoms: _1  and  _3
REMARK    2  A    between atoms: _3  and  _4
REMARK    3  A    between atoms: _7  and  _9
REMARK    4  A    between atoms: _9  and  _10
REMARK    5  A    between atoms: _9  and  _12
REMARK    6  A    between atoms: _12  and  _13
REMARK    7  A    between atoms: _15  and  _17
REMARK    8  A    between atoms: _17  and  _18
REMARK    9  A    between atoms: _17  and  _20
REMARK   10  A    between atoms: _20  and  _21
REMARK   11  A    between atoms: _23  and  _25
REMARK   12  A    between atoms: _25  and  _26
REMARK   13  A    between atoms: _29  and  _31
REMARK   14  A    between atoms: _31  and  _32
REMARK   15  A    between atoms: _31  and  _34
REMARK   16  A    between atoms: _34  and  _35
REMARK   17  A    between atoms: _40  and  _41
REMARK   18  A    between atoms: _43  and  _45
REMARK   19  A    between atoms: _45  and  _46
REMARK   20  A    between atoms: _45  and  _48
REMARK   21  A    between atoms: _48  and  _49
REMARK   22  A    between atoms: _49  and  _50
REMARK   23  A    between atoms: _55  and  _57
REMARK   24  A    between atoms: _57  and  _58
REMARK   25  A    between atoms: _57  and  _60
REMARK   26  A    between atoms: _60  and  _61
REMARK   27  A    between atoms: _67  and  _69
REMARK   28  A    between atoms: _69  and  _70
REMARK   29  A    between atoms: _69  and  _72
REMARK   30  A    between atoms: _72  and  _73
REMARK   31  A    between atoms: _83  and  _85
REMARK   32  A    between atoms: _85  and  _86
REMARK   33  A    between atoms: _85  and  _88
REMARK   34  A    between atoms: _88  and  _89
REMARK   35  A    between atoms: _91  and  _93
REMARK   36  A    between atoms: _93  and  _94
REMARK   37  A    between atoms: _93  and  _96
REMARK   38  A    between atoms: _96  and  _97
REMARK   39  A    between atoms: _97  and  _98
REMARK   40  A    between atoms: _98  and  _99
REMARK   41  A    between atoms: _108  and  _110
REMARK   42  A    between atoms: _110  and  _111
REMARK   43  A    between atoms: _110  and  _113
REMARK   44  A    between atoms: _113  and  _114
REMARK   45  A    between atoms: _117  and  _119
REMARK   46  A    between atoms: _119  and  _120
REMARK   47  A    between atoms: _119  and  _122
REMARK   48  A    between atoms: _122  and  _123
REMARK   49  A    between atoms: _128  and  _130
REMARK   50  A    between atoms: _130  and  _131
REMARK   51  A    between atoms: _130  and  _133
REMARK   52  A    between atoms: _133  and  _134
REMARK   53  A    between atoms: _144  and  _146
REMARK   54  A    between atoms: _146  and  _147
REMARK   55  A    between atoms: _146  and  _149
REMARK   56  A    between atoms: _149  and  _150
REMARK   57  A    between atoms: _155  and  _157
REMARK   58  A    between atoms: _157  and  _158
REMARK   59  A    between atoms: _157  and  _160
REMARK   60  A    between atoms: _160  and  _161
REMARK   61  A    between atoms: _161  and  _162
REMARK   62  A    between atoms: _165  and  _167
REMARK   63  A    between atoms: _167  and  _168
REMARK   64  A    between atoms: _167  and  _170
REMARK   65  A    between atoms: _170  and  _171
REMARK   66  A    between atoms: _181  and  _183
REMARK   67  A    between atoms: _183  and  _184
REMARK   68  A    between atoms: _183  and  _186
REMARK   69  A    between atoms: _186  and  _187
REMARK   70  A    between atoms: _189  and  _191
REMARK   71  A    between atoms: _191  and  _192
REMARK   72  A    between atoms: _191  and  _194
REMARK   73  A    between atoms: _194  and  _195
REMARK   74  A    between atoms: _200  and  _201
REMARK   75  A    between atoms: _203  and  _205
REMARK   76  A    between atoms: _205  and  _206
REMARK   77  A    between atoms: _205  and  _208
REMARK   78  A    between atoms: _208  and  _209
REMARK   79  A    between atoms: _211  and  _213
REMARK   80  A    between atoms: _213  and  _214
REMARK   81  A    between atoms: _213  and  _216
REMARK   82  A    between atoms: _216  and  _217
REMARK   83  A    between atoms: _222  and  _223
REMARK   84  A    between atoms: _225  and  _227
REMARK   85  A    between atoms: _227  and  _228
REMARK   86  A    between atoms: _230  and  _232
REMARK   87  A    between atoms: _232  and  _233
REMARK   88  A    between atoms: _235  and  _237
REMARK   89  A    between atoms: _237  and  _238
REMARK   90  A    between atoms: _237  and  _240
REMARK   91  A    between atoms: _240  and  _241
REMARK   92  A    between atoms: _246  and  _247
REMARK   93  A    between atoms: _249  and  _251
REMARK   94  A    between atoms: _251  and  _252
REMARK   95  A    between atoms: _251  and  _254
REMARK   96  A    between atoms: _254  and  _255
REMARK   97  A    between atoms: _258  and  _260
REMARK   98  A    between atoms: _260  and  _261
REMARK   99  A    between atoms: _264  and  _266
REMARK  100  A    between atoms: _266  and  _267
REMARK  101  A    between atoms: _269  and  _271
REMARK  102  A    between atoms: _271  and  _272
REMARK  103  A    between atoms: _271  and  _274
REMARK  104  A    between atoms: _274  and  _275
REMARK  105  A    between atoms: _278  and  _280
REMARK  106  A    between atoms: _280  and  _281
REMARK  107  A    between atoms: _280  and  _283
REMARK  108  A    between atoms: _283  and  _284
REMARK  109  A    between atoms: _287  and  _289
REMARK  110  A    between atoms: _289  and  _290
REMARK  111  A    between atoms: _289  and  _292
REMARK  112  A    between atoms: _292  and  _293
REMARK  113  A    between atoms: _296  and  _298
REMARK  114  A    between atoms: _298  and  _299
REMARK  115  A    between atoms: _298  and  _301
REMARK  116  A    between atoms: _304  and  _306
REMARK  117  A    between atoms: _306  and  _307
REMARK  118  A    between atoms: _306  and  _309
REMARK  119  A    between atoms: _309  and  _310
REMARK  120  A    between atoms: _313  and  _315
REMARK  121  A    between atoms: _315  and  _316
REMARK  122  A    between atoms: _315  and  _318
REMARK  123  A    between atoms: _318  and  _319
REMARK  124  A    between atoms: _324  and  _325
REMARK  125  A    between atoms: _327  and  _329
REMARK  126  A    between atoms: _329  and  _330
REMARK  127  A    between atoms: _329  and  _332
REMARK  128  A    between atoms: _332  and  _333
REMARK  129  A    between atoms: _333  and  _334
REMARK  130  A    between atoms: _336  and  _338
REMARK  131  A    between atoms: _338  and  _339
REMARK  132  A    between atoms: _338  and  _341
REMARK  133  A    between atoms: _341  and  _342
REMARK  134  A    between atoms: _347  and  _349
REMARK  135  A    between atoms: _349  and  _350
REMARK  136  A    between atoms: _349  and  _352
REMARK  137  A    between atoms: _352  and  _353
REMARK  138  A    between atoms: _358  and  _359
REMARK  139  A    between atoms: _361  and  _363
REMARK  140  A    between atoms: _363  and  _364
REMARK  141  A    between atoms: _363  and  _366
REMARK  142  A    between atoms: _366  and  _367
REMARK  143  A    between atoms: _372  and  _373
REMARK  144  A    between atoms: _375  and  _377
REMARK  145  A    between atoms: _377  and  _378
REMARK  146  A    between atoms: _377  and  _380
REMARK  147  A    between atoms: _380  and  _381
REMARK  148  A    between atoms: _384  and  _386
REMARK  149  A    between atoms: _386  and  _387
REMARK  150  A    between atoms: _386  and  _389
REMARK  151  A    between atoms: _389  and  _390
REMARK  152  A    between atoms: _395  and  _397
REMARK  153  A    between atoms: _397  and  _398
REMARK  154  A    between atoms: _397  and  _400
REMARK  155  A    between atoms: _400  and  _401
REMARK  156  A    between atoms: _401  and  _402
REMARK  157  A    between atoms: _407  and  _409
REMARK  158  A    between atoms: _409  and  _410
REMARK  159  A    between atoms: _409  and  _412
REMARK  160  A    between atoms: _412  and  _413
REMARK  161  A    between atoms: _416  and  _418
REMARK  162  A    between atoms: _418  and  _419
REMARK  163  A    between atoms: _421  and  _423
REMARK  164  A    between atoms: _423  and  _424
REMARK  165  A    between atoms: _423  and  _426
REMARK  166  A    between atoms: _430  and  _431
REMARK  167  A    between atoms: _436  and  _438
REMARK  168  A    between atoms: _438  and  _439
REMARK  169  A    between atoms: _442  and  _444
REMARK  170  A    between atoms: _444  and  _445
REMARK  171  A    between atoms: _444  and  _447
REMARK  172  A    between atoms: _447  and  _448
REMARK  173  A    between atoms: _454  and  _456
REMARK  174  A    between atoms: _456  and  _457
REMARK  175  A    between atoms: _456  and  _459
REMARK  176  A    between atoms: _459  and  _460
REMARK  177  A    between atoms: _463  and  _465
REMARK  178  A    between atoms: _465  and  _466
REMARK  179  A    between atoms: _465  and  _468
REMARK  180  A    between atoms: _468  and  _469
REMARK  181  A    between atoms: _469  and  _470
REMARK  182  A    between atoms: _473  and  _475
REMARK  183  A    between atoms: _475  and  _476
REMARK  184  A    between atoms: _475  and  _478
REMARK  185  A    between atoms: _478  and  _479
REMARK  186  A    between atoms: _484  and  _486
REMARK  187  A    between atoms: _486  and  _487
REMARK  188  A    between atoms: _489  and  _491
REMARK  189  A    between atoms: _491  and  _492
REMARK  190  A    between atoms: _491  and  _494
REMARK  191  A    between atoms: _494  and  _495
REMARK  192  A    between atoms: _495  and  _496
REMARK  193  A    between atoms: _498  and  _500
REMARK  194  A    between atoms: _500  and  _501
REMARK  195  A    between atoms: _503  and  _505
REMARK  196  A    between atoms: _505  and  _506
REMARK  197  A    between atoms: _505  and  _508
REMARK  198  A    between atoms: _508  and  _509
REMARK  199  A    between atoms: _519  and  _521
REMARK  200  A    between atoms: _521  and  _522
REMARK  201  A    between atoms: _525  and  _527
REMARK  202  A    between atoms: _527  and  _528
REMARK  203  A    between atoms: _527  and  _530
REMARK  204  A    between atoms: _530  and  _531
REMARK  205  A    between atoms: _534  and  _536
REMARK  206  A    between atoms: _536  and  _537
REMARK  207  A    between atoms: _536  and  _539
REMARK  208  A    between atoms: _539  and  _540
REMARK  209  A    between atoms: _545  and  _547
REMARK  210  A    between atoms: _547  and  _548
REMARK  211  A    between atoms: _547  and  _550
REMARK  212  A    between atoms: _550  and  _551
REMARK  213  A    between atoms: _557  and  _559
REMARK  214  A    between atoms: _559  and  _560
REMARK  215  A    between atoms: _559  and  _562
REMARK  216  A    between atoms: _562  and  _563
REMARK  217  A    between atoms: _563  and  _564
REMARK  218  A    between atoms: _567  and  _569
REMARK  219  A    between atoms: _569  and  _570
REMARK  220  A    between atoms: _569  and  _572
REMARK  221  A    between atoms: _572  and  _573
REMARK  222  A    between atoms: _583  and  _585
REMARK  223  A    between atoms: _585  and  _586
REMARK  224  A    between atoms: _585  and  _588
REMARK  225  A    between atoms: _588  and  _589
REMARK  226  A    between atoms: _592  and  _594
REMARK  227  A    between atoms: _594  and  _595
REMARK  228  A    between atoms: _594  and  _597
REMARK  229  A    between atoms: _597  and  _598
REMARK  230  A    between atoms: _600  and  _602
REMARK  231  A    between atoms: _602  and  _603
REMARK  232  A    between atoms: _605  and  _607
REMARK  233  A    between atoms: _607  and  _608
REMARK  234  A    between atoms: _607  and  _610
REMARK  235  A    between atoms: _610  and  _611
REMARK  236  A    between atoms: _614  and  _616
REMARK  237  A    between atoms: _616  and  _617
REMARK  238  A    between atoms: _616  and  _619
REMARK  239  A    between atoms: _619  and  _620
REMARK  240  A    between atoms: _620  and  _621
REMARK  241  A    between atoms: _626  and  _628
REMARK  242  A    between atoms: _628  and  _629
REMARK  243  A    between atoms: _628  and  _631
REMARK  244  A    between atoms: _631  and  _632
REMARK                            x       y       z     vdW  Elec       q    Type
REMARK                         _______ _______ _______ _____ _____    ______ ____
ROOT
ATOM      1  O   HOH     1       7.837  34.060  29.634  0.00  0.00    +0.000 OA
ENDROOT
TORSDOF 0
REMARK  Name = ../refined-set-2016/3wq6/3wq6_pocket.pdb
REMARK  244 active torsions:
REMARK  status: ('A' for Active; 'I' for Inactive)
REMARK    1  A    between atoms: _1  and  _3
REMARK    2  A    between atoms: _3  and  _4
REMARK    3  A    between atoms: _7  and  _9
REMARK    4  A    between atoms: _9  and  _10
REMARK    5  A    between atoms: _9  and  _12
REMARK    6  A    between atoms: _12  and  _13
REMARK    7  A    between atoms: _15  and  _17
REMARK    8  A    between atoms: _17  and  _18
REMARK    9  A    between atoms: _17  and  _20
REMARK   10  A    between atoms: _20  and  _21
REMARK   11  A    between atoms: _23  and  _25
REMARK   12  A    between atoms: _25  and  _26
REMARK   13  A    between atoms: _29  and  _31
REMARK   14  A    between atoms: _31  and  _32
REMARK   15  A    between atoms: _31  and  _34
REMARK   16  A    between atoms: _34  and  _35
REMARK   17  A    between atoms: _40  and  _41
REMARK   18  A    between atoms: _43  and  _45
REMARK   19  A    between atoms: _45  and  _46
REMARK   20  A    between atoms: _45  and  _48
REMARK   21  A    between atoms: _48  and  _49
REMARK   22  A    between atoms: _49  and  _50
REMARK   23  A    between atoms: _55  and  _57
REMARK   24  A    between atoms: _57  and  _58
REMARK   25  A    between atoms: _57  and  _60
REMARK   26  A    between atoms: _60  and  _61
REMARK   27  A    between atoms: _67  and  _69
REMARK   28  A    between atoms: _69  and  _70
REMARK   29  A    between atoms: _69  and  _72
REMARK   30  A    between atoms: _72  and  _73
REMARK   31  A    between atoms: _83  and  _85
REMARK   32  A    between atoms: _85  and  _86
REMARK   33  A    between atoms: _85  and  _88
REMARK   34  A    between atoms: _88  and  _89
REMARK   35  A    between atoms: _91  and  _93
REMARK   36  A    between atoms: _93  and  _94
REMARK   37  A    between atoms: _93  and  _96
REMARK   38  A    between atoms: _96  and  _97
REMARK   39  A    between atoms: _97  and  _98
REMARK   40  A    between atoms: _98  and  _99
REMARK   41  A    between atoms: _108  and  _110
REMARK   42  A    between atoms: _110  and  _111
REMARK   43  A    between atoms: _110  and  _113
REMARK   44  A    between atoms: _113  and  _114
REMARK   45  A    between atoms: _117  and  _119
REMARK   46  A    between atoms: _119  and  _120
REMARK   47  A    between atoms: _119  and  _122
REMARK   48  A    between atoms: _122  and  _123
REMARK   49  A    between atoms: _128  and  _130
REMARK   50  A    between atoms: _130  and  _131
REMARK   51  A    between atoms: _130  and  _133
REMARK   52  A    between atoms: _133  and  _134
REMARK   53  A    between atoms: _144  and  _146
REMARK   54  A    between atoms: _146  and  _147
REMARK   55  A    between atoms: _146  and  _149
REMARK   56  A    between atoms: _149  and  _150
REMARK   57  A    between atoms: _155  and  _157
REMARK   58  A    between atoms: _157  and  _158
REMARK   59  A    between atoms: _157  and  _160
REMARK   60  A    between atoms: _160  and  _161
REMARK   61  A    between atoms: _161  and  _162
REMARK   62  A    between atoms: _165  and  _167
REMARK   63  A    between atoms: _167  and  _168
REMARK   64  A    between atoms: _167  and  _170
REMARK   65  A    between atoms: _170  and  _171
REMARK   66  A    between atoms: _181  and  _183
REMARK   67  A    between atoms: _183  and  _184
REMARK   68  A    between atoms: _183  and  _186
REMARK   69  A    between atoms: _186  and  _187
REMARK   70  A    between atoms: _189  and  _191
REMARK   71  A    between atoms: _191  and  _192
REMARK   72  A    between atoms: _191  and  _194
REMARK   73  A    between atoms: _194  and  _195
REMARK   74  A    between atoms: _200  and  _201
REMARK   75  A    between atoms: _203  and  _205
REMARK   76  A    between atoms: _205  and  _206
REMARK   77  A    between atoms: _205  and  _208
REMARK   78  A    between atoms: _208  and  _209
REMARK   79  A    between atoms: _211  and  _213
REMARK   80  A    between atoms: _213  and  _214
REMARK   81  A    between atoms: _213  and  _216
REMARK   82  A    between atoms: _216  and  _217
REMARK   83  A    between atoms: _222  and  _223
REMARK   84  A    between atoms: _225  and  _227
REMARK   85  A    between atoms: _227  and  _228
REMARK   86  A    between atoms: _230  and  _232
REMARK   87  A    between atoms: _232  and  _233
REMARK   88  A    between atoms: _235  and  _237
REMARK   89  A    between atoms: _237  and  _238
REMARK   90  A    between atoms: _237  and  _240
REMARK   91  A    between atoms: _240  and  _241
REMARK   92  A    between atoms: _246  and  _247
REMARK   93  A    between atoms: _249  and  _251
REMARK   94  A    between atoms: _251  and  _252
REMARK   95  A    between atoms: _251  and  _254
REMARK   96  A    between atoms: _254  and  _255
REMARK   97  A    between atoms: _258  and  _260
REMARK   98  A    between atoms: _260  and  _261
REMARK   99  A    between atoms: _264  and  _266
REMARK  100  A    between atoms: _266  and  _267
REMARK  101  A    between atoms: _269  and  _271
REMARK  102  A    between atoms: _271  and  _272
REMARK  103  A    between atoms: _271  and  _274
REMARK  104  A    between atoms: _274  and  _275
REMARK  105  A    between atoms: _278  and  _280
REMARK  106  A    between atoms: _280  and  _281
REMARK  107  A    between atoms: _280  and  _283
REMARK  108  A    between atoms: _283  and  _284
REMARK  109  A    between atoms: _287  and  _289
REMARK  110  A    between atoms: _289  and  _290
REMARK  111  A    between atoms: _289  and  _292
REMARK  112  A    between atoms: _292  and  _293
REMARK  113  A    between atoms: _296  and  _298
REMARK  114  A    between atoms: _298  and  _299
REMARK  115  A    between atoms: _298  and  _301
REMARK  116  A    between atoms: _304  and  _306
REMARK  117  A    between atoms: _306  and  _307
REMARK  118  A    between atoms: _306  and  _309
REMARK  119  A    between atoms: _309  and  _310
REMARK  120  A    between atoms: _313  and  _315
REMARK  121  A    between atoms: _315  and  _316
REMARK  122  A    between atoms: _315  and  _318
REMARK  123  A    between atoms: _318  and  _319
REMARK  124  A    between atoms: _324  and  _325
REMARK  125  A    between atoms: _327  and  _329
REMARK  126  A    between atoms: _329  and  _330
REMARK  127  A    between atoms: _329  and  _332
REMARK  128  A    between atoms: _332  and  _333
REMARK  129  A    between atoms: _333  and  _334
REMARK  130  A    between atoms: _336  and  _338
REMARK  131  A    between atoms: _338  and  _339
REMARK  132  A    between atoms: _338  and  _341
REMARK  133  A    between atoms: _341  and  _342
REMARK  134  A    between atoms: _347  and  _349
REMARK  135  A    between atoms: _349  and  _350
REMARK  136  A    between atoms: _349  and  _352
REMARK  137  A    between atoms: _352  and  _353
REMARK  138  A    between atoms: _358  and  _359
REMARK  139  A    between atoms: _361  and  _363
REMARK  140  A    between atoms: _363  and  _364
REMARK  141  A    between atoms: _363  and  _366
REMARK  142  A    between atoms: _366  and  _367
REMARK  143  A    between atoms: _372  and  _373
REMARK  144  A    between atoms: _375  and  _377
REMARK  145  A    between atoms: _377  and  _378
REMARK  146  A    between atoms: _377  and  _380
REMARK  147  A    between atoms: _380  and  _381
REMARK  148  A    between atoms: _384  and  _386
REMARK  149  A    between atoms: _386  and  _387
REMARK  150  A    between atoms: _386  and  _389
REMARK  151  A    between atoms: _389  and  _390
REMARK  152  A    between atoms: _395  and  _397
REMARK  153  A    between atoms: _397  and  _398
REMARK  154  A    between atoms: _397  and  _400
REMARK  155  A    between atoms: _400  and  _401
REMARK  156  A    between atoms: _401  and  _402
REMARK  157  A    between atoms: _407  and  _409
REMARK  158  A    between atoms: _409  and  _410
REMARK  159  A    between atoms: _409  and  _412
REMARK  160  A    between atoms: _412  and  _413
REMARK  161  A    between atoms: _416  and  _418
REMARK  162  A    between atoms: _418  and  _419
REMARK  163  A    between atoms: _421  and  _423
REMARK  164  A    between atoms: _423  and  _424
REMARK  165  A    between atoms: _423  and  _426
REMARK  166  A    between atoms: _430  and  _431
REMARK  167  A    between atoms: _436  and  _438
REMARK  168  A    between atoms: _438  and  _439
REMARK  169  A    between atoms: _442  and  _444
REMARK  170  A    between atoms: _444  and  _445
REMARK  171  A    between atoms: _444  and  _447
REMARK  172  A    between atoms: _447  and  _448
REMARK  173  A    between atoms: _454  and  _456
REMARK  174  A    between atoms: _456  and  _457
REMARK  175  A    between atoms: _456  and  _459
REMARK  176  A    between atoms: _459  and  _460
REMARK  177  A    between atoms: _463  and  _465
REMARK  178  A    between atoms: _465  and  _466
REMARK  179  A    between atoms: _465  and  _468
REMARK  180  A    between atoms: _468  and  _469
REMARK  181  A    between atoms: _469  and  _470
REMARK  182  A    between atoms: _473  and  _475
REMARK  183  A    between atoms: _475  and  _476
REMARK  184  A    between atoms: _475  and  _478
REMARK  185  A    between atoms: _478  and  _479
REMARK  186  A    between atoms: _484  and  _486
REMARK  187  A    between atoms: _486  and  _487
REMARK  188  A    between atoms: _489  and  _491
REMARK  189  A    between atoms: _491  and  _492
REMARK  190  A    between atoms: _491  and  _494
REMARK  191  A    between atoms: _494  and  _495
REMARK  192  A    between atoms: _495  and  _496
REMARK  193  A    between atoms: _498  and  _500
REMARK  194  A    between atoms: _500  and  _501
REMARK  195  A    between atoms: _503  and  _505
REMARK  196  A    between atoms: _505  and  _506
REMARK  197  A    between atoms: _505  and  _508
REMARK  198  A    between atoms: _508  and  _509
REMARK  199  A    between atoms: _519  and  _521
REMARK  200  A    between atoms: _521  and  _522
REMARK  201  A    between atoms: _525  and  _527
REMARK  202  A    between atoms: _527  and  _528
REMARK  203  A    between atoms: _527  and  _530
REMARK  204  A    between atoms: _530  and  _531
REMARK  205  A    between atoms: _534  and  _536
REMARK  206  A    between atoms: _536  and  _537
REMARK  207  A    between atoms: _536  and  _539
REMARK  208  A    between atoms: _539  and  _540
REMARK  209  A    between atoms: _545  and  _547
REMARK  210  A    between atoms: _547  and  _548
REMARK  211  A    between atoms: _547  and  _550
REMARK  212  A    between atoms: _550  and  _551
REMARK  213  A    between atoms: _557  and  _559
REMARK  214  A    between atoms: _559  and  _560
REMARK  215  A    between atoms: _559  and  _562
REMARK  216  A    between atoms: _562  and  _563
REMARK  217  A    between atoms: _563  and  _564
REMARK  218  A    between atoms: _567  and  _569
REMARK  219  A    between atoms: _569  and  _570
REMARK  220  A    between atoms: _569  and  _572
REMARK  221  A    between atoms: _572  and  _573
REMARK  222  A    between atoms: _583  and  _585
REMARK  223  A    between atoms: _585  and  _586
REMARK  224  A    between atoms: _585  and  _588
REMARK  225  A    between atoms: _588  and  _589
REMARK  226  A    between atoms: _592  and  _594
REMARK  227  A    between atoms: _594  and  _595
REMARK  228  A    between atoms: _594  and  _597
REMARK  229  A    between atoms: _597  and  _598
REMARK  230  A    between atoms: _600  and  _602
REMARK  231  A    between atoms: _602  and  _603
REMARK  232  A    between atoms: _605  and  _607
REMARK  233  A    between atoms: _607  and  _608
REMARK  234  A    between atoms: _607  and  _610
REMARK  235  A    between atoms: _610  and  _611
REMARK  236  A    between atoms: _614  and  _616
REMARK  237  A    between atoms: _616  and  _617
REMARK  238  A    between atoms: _616  and  _619
REMARK  239  A    between atoms: _619  and  _620
REMARK  240  A    between atoms: _620  and  _621
REMARK  241  A    between atoms: _626  and  _628
REMARK  242  A    between atoms: _628  and  _629
REMARK  243  A    between atoms: _628  and  _631
REMARK  244  A    between atoms: _631  and  _632
REMARK                            x       y       z     vdW  Elec       q    Type
REMARK                         _______ _______ _______ _____ _____    ______ ____
ROOT
ATOM      1  O   HOH     1       0.059  24.732  18.567  0.00  0.00    +0.000 OA
ENDROOT
TORSDOF 0
REMARK  Name = ../refined-set-2016/3wq6/3wq6_pocket.pdb
REMARK  244 active torsions:
REMARK  status: ('A' for Active; 'I' for Inactive)
REMARK    1  A    between atoms: _1  and  _3
REMARK    2  A    between atoms: _3  and  _4
REMARK    3  A    between atoms: _7  and  _9
REMARK    4  A    between atoms: _9  and  _10
REMARK    5  A    between atoms: _9  and  _12
REMARK    6  A    between atoms: _12  and  _13
REMARK    7  A    between atoms: _15  and  _17
REMARK    8  A    between atoms: _17  and  _18
REMARK    9  A    between atoms: _17  and  _20
REMARK   10  A    between atoms: _20  and  _21
REMARK   11  A    between atoms: _23  and  _25
REMARK   12  A    between atoms: _25  and  _26
REMARK   13  A    between atoms: _29  and  _31
REMARK   14  A    between atoms: _31  and  _32
REMARK   15  A    between atoms: _31  and  _34
REMARK   16  A    between atoms: _34  and  _35
REMARK   17  A    between atoms: _40  and  _41
REMARK   18  A    between atoms: _43  and  _45
REMARK   19  A    between atoms: _45  and  _46
REMARK   20  A    between atoms: _45  and  _48
REMARK   21  A    between atoms: _48  and  _49
REMARK   22  A    between atoms: _49  and  _50
REMARK   23  A    between atoms: _55  and  _57
REMARK   24  A    between atoms: _57  and  _58
REMARK   25  A    between atoms: _57  and  _60
REMARK   26  A    between atoms: _60  and  _61
REMARK   27  A    between atoms: _67  and  _69
REMARK   28  A    between atoms: _69  and  _70
REMARK   29  A    between atoms: _69  and  _72
REMARK   30  A    between atoms: _72  and  _73
REMARK   31  A    between atoms: _83  and  _85
REMARK   32  A    between atoms: _85  and  _86
REMARK   33  A    between atoms: _85  and  _88
REMARK   34  A    between atoms: _88  and  _89
REMARK   35  A    between atoms: _91  and  _93
REMARK   36  A    between atoms: _93  and  _94
REMARK   37  A    between atoms: _93  and  _96
REMARK   38  A    between atoms: _96  and  _97
REMARK   39  A    between atoms: _97  and  _98
REMARK   40  A    between atoms: _98  and  _99
REMARK   41  A    between atoms: _108  and  _110
REMARK   42  A    between atoms: _110  and  _111
REMARK   43  A    between atoms: _110  and  _113
REMARK   44  A    between atoms: _113  and  _114
REMARK   45  A    between atoms: _117  and  _119
REMARK   46  A    between atoms: _119  and  _120
REMARK   47  A    between atoms: _119  and  _122
REMARK   48  A    between atoms: _122  and  _123
REMARK   49  A    between atoms: _128  and  _130
REMARK   50  A    between atoms: _130  and  _131
REMARK   51  A    between atoms: _130  and  _133
REMARK   52  A    between atoms: _133  and  _134
REMARK   53  A    between atoms: _144  and  _146
REMARK   54  A    between atoms: _146  and  _147
REMARK   55  A    between atoms: _146  and  _149
REMARK   56  A    between atoms: _149  and  _150
REMARK   57  A    between atoms: _155  and  _157
REMARK   58  A    between atoms: _157  and  _158
REMARK   59  A    between atoms: _157  and  _160
REMARK   60  A    between atoms: _160  and  _161
REMARK   61  A    between atoms: _161  and  _162
REMARK   62  A    between atoms: _165  and  _167
REMARK   63  A    between atoms: _167  and  _168
REMARK   64  A    between atoms: _167  and  _170
REMARK   65  A    between atoms: _170  and  _171
REMARK   66  A    between atoms: _181  and  _183
REMARK   67  A    between atoms: _183  and  _184
REMARK   68  A    between atoms: _183  and  _186
REMARK   69  A    between atoms: _186  and  _187
REMARK   70  A    between atoms: _189  and  _191
REMARK   71  A    between atoms: _191  and  _192
REMARK   72  A    between atoms: _191  and  _194
REMARK   73  A    between atoms: _194  and  _195
REMARK   74  A    between atoms: _200  and  _201
REMARK   75  A    between atoms: _203  and  _205
REMARK   76  A    between atoms: _205  and  _206
REMARK   77  A    between atoms: _205  and  _208
REMARK   78  A    between atoms: _208  and  _209
REMARK   79  A    between atoms: _211  and  _213
REMARK   80  A    between atoms: _213  and  _214
REMARK   81  A    between atoms: _213  and  _216
REMARK   82  A    between atoms: _216  and  _217
REMARK   83  A    between atoms: _222  and  _223
REMARK   84  A    between atoms: _225  and  _227
REMARK   85  A    between atoms: _227  and  _228
REMARK   86  A    between atoms: _230  and  _232
REMARK   87  A    between atoms: _232  and  _233
REMARK   88  A    between atoms: _235  and  _237
REMARK   89  A    between atoms: _237  and  _238
REMARK   90  A    between atoms: _237  and  _240
REMARK   91  A    between atoms: _240  and  _241
REMARK   92  A    between atoms: _246  and  _247
REMARK   93  A    between atoms: _249  and  _251
REMARK   94  A    between atoms: _251  and  _252
REMARK   95  A    between atoms: _251  and  _254
REMARK   96  A    between atoms: _254  and  _255
REMARK   97  A    between atoms: _258  and  _260
REMARK   98  A    between atoms: _260  and  _261
REMARK   99  A    between atoms: _264  and  _266
REMARK  100  A    between atoms: _266  and  _267
REMARK  101  A    between atoms: _269  and  _271
REMARK  102  A    between atoms: _271  and  _272
REMARK  103  A    between atoms: _271  and  _274
REMARK  104  A    between atoms: _274  and  _275
REMARK  105  A    between atoms: _278  and  _280
REMARK  106  A    between atoms: _280  and  _281
REMARK  107  A    between atoms: _280  and  _283
REMARK  108  A    between atoms: _283  and  _284
REMARK  109  A    between atoms: _287  and  _289
REMARK  110  A    between atoms: _289  and  _290
REMARK  111  A    between atoms: _289  and  _292
REMARK  112  A    between atoms: _292  and  _293
REMARK  113  A    between atoms: _296  and  _298
REMARK  114  A    between atoms: _298  and  _299
REMARK  115  A    between atoms: _298  and  _301
REMARK  116  A    between atoms: _304  and  _306
REMARK  117  A    between atoms: _306  and  _307
REMARK  118  A    between atoms: _306  and  _309
REMARK  119  A    between atoms: _309  and  _310
REMARK  120  A    between atoms: _313  and  _315
REMARK  121  A    between atoms: _315  and  _316
REMARK  122  A    between atoms: _315  and  _318
REMARK  123  A    between atoms: _318  and  _319
REMARK  124  A    between atoms: _324  and  _325
REMARK  125  A    between atoms: _327  and  _329
REMARK  126  A    between atoms: _329  and  _330
REMARK  127  A    between atoms: _329  and  _332
REMARK  128  A    between atoms: _332  and  _333
REMARK  129  A    between atoms: _333  and  _334
REMARK  130  A    between atoms: _336  and  _338
REMARK  131  A    between atoms: _338  and  _339
REMARK  132  A    between atoms: _338  and  _341
REMARK  133  A    between atoms: _341  and  _342
REMARK  134  A    between atoms: _347  and  _349
REMARK  135  A    between atoms: _349  and  _350
REMARK  136  A    between atoms: _349  and  _352
REMARK  137  A    between atoms: _352  and  _353
REMARK  138  A    between atoms: _358  and  _359
REMARK  139  A    between atoms: _361  and  _363
REMARK  140  A    between atoms: _363  and  _364
REMARK  141  A    between atoms: _363  and  _366
REMARK  142  A    between atoms: _366  and  _367
REMARK  143  A    between atoms: _372  and  _373
REMARK  144  A    between atoms: _375  and  _377
REMARK  145  A    between atoms: _377  and  _378
REMARK  146  A    between atoms: _377  and  _380
REMARK  147  A    between atoms: _380  and  _381
REMARK  148  A    between atoms: _384  and  _386
REMARK  149  A    between atoms: _386  and  _387
REMARK  150  A    between atoms: _386  and  _389
REMARK  151  A    between atoms: _389  and  _390
REMARK  152  A    between atoms: _395  and  _397
REMARK  153  A    between atoms: _397  and  _398
REMARK  154  A    between atoms: _397  and  _400
REMARK  155  A    between atoms: _400  and  _401
REMARK  156  A    between atoms: _401  and  _402
REMARK  157  A    between atoms: _407  and  _409
REMARK  158  A    between atoms: _409  and  _410
REMARK  159  A    between atoms: _409  and  _412
REMARK  160  A    between atoms: _412  and  _413
REMARK  161  A    between atoms: _416  and  _418
REMARK  162  A    between atoms: _418  and  _419
REMARK  163  A    between atoms: _421  and  _423
REMARK  164  A    between atoms: _423  and  _424
REMARK  165  A    between atoms: _423  and  _426
REMARK  166  A    between atoms: _430  and  _431
REMARK  167  A    between atoms: _436  and  _438
REMARK  168  A    between atoms: _438  and  _439
REMARK  169  A    between atoms: _442  and  _444
REMARK  170  A    between atoms: _444  and  _445
REMARK  171  A    between atoms: _444  and  _447
REMARK  172  A    between atoms: _447  and  _448
REMARK  173  A    between atoms: _454  and  _456
REMARK  174  A    between atoms: _456  and  _457
REMARK  175  A    between atoms: _456  and  _459
REMARK  176  A    between atoms: _459  and  _460
REMARK  177  A    between atoms: _463  and  _465
REMARK  178  A    between atoms: _465  and  _466
REMARK  179  A    between atoms: _465  and  _468
REMARK  180  A    between atoms: _468  and  _469
REMARK  181  A    between atoms: _469  and  _470
REMARK  182  A    between atoms: _473  and  _475
REMARK  183  A    between atoms: _475  and  _476
REMARK  184  A    between atoms: _475  and  _478
REMARK  185  A    between atoms: _478  and  _479
REMARK  186  A    between atoms: _484  and  _486
REMARK  187  A    between atoms: _486  and  _487
REMARK  188  A    between atoms: _489  and  _491
REMARK  189  A    between atoms: _491  and  _492
REMARK  190  A    between atoms: _491  and  _494
REMARK  191  A    between atoms: _494  and  _495
REMARK  192  A    between atoms: _495  and  _496
REMARK  193  A    between atoms: _498  and  _500
REMARK  194  A    between atoms: _500  and  _501
REMARK  195  A    between atoms: _503  and  _505
REMARK  196  A    between atoms: _505  and  _506
REMARK  197  A    between atoms: _505  and  _508
REMARK  198  A    between atoms: _508  and  _509
REMARK  199  A    between atoms: _519  and  _521
REMARK  200  A    between atoms: _521  and  _522
REMARK  201  A    between atoms: _525  and  _527
REMARK  202  A    between atoms: _527  and  _528
REMARK  203  A    between atoms: _527  and  _530
REMARK  204  A    between atoms: _530  and  _531
REMARK  205  A    between atoms: _534  and  _536
REMARK  206  A    between atoms: _536  and  _537
REMARK  207  A    between atoms: _536  and  _539
REMARK  208  A    between atoms: _539  and  _540
REMARK  209  A    between atoms: _545  and  _547
REMARK  210  A    between atoms: _547  and  _548
REMARK  211  A    between atoms: _547  and  _550
REMARK  212  A    between atoms: _550  and  _551
REMARK  213  A    between atoms: _557  and  _559
REMARK  214  A    between atoms: _559  and  _560
REMARK  215  A    between atoms: _559  and  _562
REMARK  216  A    between atoms: _562  and  _563
REMARK  217  A    between atoms: _563  and  _564
REMARK  218  A    between atoms: _567  and  _569
REMARK  219  A    between atoms: _569  and  _570
REMARK  220  A    between atoms: _569  and  _572
REMARK  221  A    between atoms: _572  and  _573
REMARK  222  A    between atoms: _583  and  _585
REMARK  223  A    between atoms: _585  and  _586
REMARK  224  A    between atoms: _585  and  _588
REMARK  225  A    between atoms: _588  and  _589
REMARK  226  A    between atoms: _592  and  _594
REMARK  227  A    between atoms: _594  and  _595
REMARK  228  A    between atoms: _594  and  _597
REMARK  229  A    between atoms: _597  and  _598
REMARK  230  A    between atoms: _600  and  _602
REMARK  231  A    between atoms: _602  and  _603
REMARK  232  A    between atoms: _605  and  _607
REMARK  233  A    between atoms: _607  and  _608
REMARK  234  A    between atoms: _607  and  _610
REMARK  235  A    between atoms: _610  and  _611
REMARK  236  A    between atoms: _614  and  _616
REMARK  237  A    between atoms: _616  and  _617
REMARK  238  A    between atoms: _616  and  _619
REMARK  239  A    between atoms: _619  and  _620
REMARK  240  A    between atoms: _620  and  _621
REMARK  241  A    between atoms: _626  and  _628
REMARK  242  A    between atoms: _628  and  _629
REMARK  243  A    between atoms: _628  and  _631
REMARK  244  A    between atoms: _631  and  _632
REMARK                            x       y       z     vdW  Elec       q    Type
REMARK                         _______ _______ _______ _____ _____    ______ ____
ROOT
ATOM      1  O   HOH     1      -5.685  43.228  18.132  0.00  0.00    +0.000 OA
ENDROOT
TORSDOF 0
REMARK  Name = ../refined-set-2016/3wq6/3wq6_pocket.pdb
REMARK  244 active torsions:
REMARK  status: ('A' for Active; 'I' for Inactive)
REMARK    1  A    between atoms: _1  and  _3
REMARK    2  A    between atoms: _3  and  _4
REMARK    3  A    between atoms: _7  and  _9
REMARK    4  A    between atoms: _9  and  _10
REMARK    5  A    between atoms: _9  and  _12
REMARK    6  A    between atoms: _12  and  _13
REMARK    7  A    between atoms: _15  and  _17
REMARK    8  A    between atoms: _17  and  _18
REMARK    9  A    between atoms: _17  and  _20
REMARK   10  A    between atoms: _20  and  _21
REMARK   11  A    between atoms: _23  and  _25
REMARK   12  A    between atoms: _25  and  _26
REMARK   13  A    between atoms: _29  and  _31
REMARK   14  A    between atoms: _31  and  _32
REMARK   15  A    between atoms: _31  and  _34
REMARK   16  A    between atoms: _34  and  _35
REMARK   17  A    between atoms: _40  and  _41
REMARK   18  A    between atoms: _43  and  _45
REMARK   19  A    between atoms: _45  and  _46
REMARK   20  A    between atoms: _45  and  _48
REMARK   21  A    between atoms: _48  and  _49
REMARK   22  A    between atoms: _49  and  _50
REMARK   23  A    between atoms: _55  and  _57
REMARK   24  A    between atoms: _57  and  _58
REMARK   25  A    between atoms: _57  and  _60
REMARK   26  A    between atoms: _60  and  _61
REMARK   27  A    between atoms: _67  and  _69
REMARK   28  A    between atoms: _69  and  _70
REMARK   29  A    between atoms: _69  and  _72
REMARK   30  A    between atoms: _72  and  _73
REMARK   31  A    between atoms: _83  and  _85
REMARK   32  A    between atoms: _85  and  _86
REMARK   33  A    between atoms: _85  and  _88
REMARK   34  A    between atoms: _88  and  _89
REMARK   35  A    between atoms: _91  and  _93
REMARK   36  A    between atoms: _93  and  _94
REMARK   37  A    between atoms: _93  and  _96
REMARK   38  A    between atoms: _96  and  _97
REMARK   39  A    between atoms: _97  and  _98
REMARK   40  A    between atoms: _98  and  _99
REMARK   41  A    between atoms: _108  and  _110
REMARK   42  A    between atoms: _110  and  _111
REMARK   43  A    between atoms: _110  and  _113
REMARK   44  A    between atoms: _113  and  _114
REMARK   45  A    between atoms: _117  and  _119
REMARK   46  A    between atoms: _119  and  _120
REMARK   47  A    between atoms: _119  and  _122
REMARK   48  A    between atoms: _122  and  _123
REMARK   49  A    between atoms: _128  and  _130
REMARK   50  A    between atoms: _130  and  _131
REMARK   51  A    between atoms: _130  and  _133
REMARK   52  A    between atoms: _133  and  _134
REMARK   53  A    between atoms: _144  and  _146
REMARK   54  A    between atoms: _146  and  _147
REMARK   55  A    between atoms: _146  and  _149
REMARK   56  A    between atoms: _149  and  _150
REMARK   57  A    between atoms: _155  and  _157
REMARK   58  A    between atoms: _157  and  _158
REMARK   59  A    between atoms: _157  and  _160
REMARK   60  A    between atoms: _160  and  _161
REMARK   61  A    between atoms: _161  and  _162
REMARK   62  A    between atoms: _165  and  _167
REMARK   63  A    between atoms: _167  and  _168
REMARK   64  A    between atoms: _167  and  _170
REMARK   65  A    between atoms: _170  and  _171
REMARK   66  A    between atoms: _181  and  _183
REMARK   67  A    between atoms: _183  and  _184
REMARK   68  A    between atoms: _183  and  _186
REMARK   69  A    between atoms: _186  and  _187
REMARK   70  A    between atoms: _189  and  _191
REMARK   71  A    between atoms: _191  and  _192
REMARK   72  A    between atoms: _191  and  _194
REMARK   73  A    between atoms: _194  and  _195
REMARK   74  A    between atoms: _200  and  _201
REMARK   75  A    between atoms: _203  and  _205
REMARK   76  A    between atoms: _205  and  _206
REMARK   77  A    between atoms: _205  and  _208
REMARK   78  A    between atoms: _208  and  _209
REMARK   79  A    between atoms: _211  and  _213
REMARK   80  A    between atoms: _213  and  _214
REMARK   81  A    between atoms: _213  and  _216
REMARK   82  A    between atoms: _216  and  _217
REMARK   83  A    between atoms: _222  and  _223
REMARK   84  A    between atoms: _225  and  _227
REMARK   85  A    between atoms: _227  and  _228
REMARK   86  A    between atoms: _230  and  _232
REMARK   87  A    between atoms: _232  and  _233
REMARK   88  A    between atoms: _235  and  _237
REMARK   89  A    between atoms: _237  and  _238
REMARK   90  A    between atoms: _237  and  _240
REMARK   91  A    between atoms: _240  and  _241
REMARK   92  A    between atoms: _246  and  _247
REMARK   93  A    between atoms: _249  and  _251
REMARK   94  A    between atoms: _251  and  _252
REMARK   95  A    between atoms: _251  and  _254
REMARK   96  A    between atoms: _254  and  _255
REMARK   97  A    between atoms: _258  and  _260
REMARK   98  A    between atoms: _260  and  _261
REMARK   99  A    between atoms: _264  and  _266
REMARK  100  A    between atoms: _266  and  _267
REMARK  101  A    between atoms: _269  and  _271
REMARK  102  A    between atoms: _271  and  _272
REMARK  103  A    between atoms: _271  and  _274
REMARK  104  A    between atoms: _274  and  _275
REMARK  105  A    between atoms: _278  and  _280
REMARK  106  A    between atoms: _280  and  _281
REMARK  107  A    between atoms: _280  and  _283
REMARK  108  A    between atoms: _283  and  _284
REMARK  109  A    between atoms: _287  and  _289
REMARK  110  A    between atoms: _289  and  _290
REMARK  111  A    between atoms: _289  and  _292
REMARK  112  A    between atoms: _292  and  _293
REMARK  113  A    between atoms: _296  and  _298
REMARK  114  A    between atoms: _298  and  _299
REMARK  115  A    between atoms: _298  and  _301
REMARK  116  A    between atoms: _304  and  _306
REMARK  117  A    between atoms: _306  and  _307
REMARK  118  A    between atoms: _306  and  _309
REMARK  119  A    between atoms: _309  and  _310
REMARK  120  A    between atoms: _313  and  _315
REMARK  121  A    between atoms: _315  and  _316
REMARK  122  A    between atoms: _315  and  _318
REMARK  123  A    between atoms: _318  and  _319
REMARK  124  A    between atoms: _324  and  _325
REMARK  125  A    between atoms: _327  and  _329
REMARK  126  A    between atoms: _329  and  _330
REMARK  127  A    between atoms: _329  and  _332
REMARK  128  A    between atoms: _332  and  _333
REMARK  129  A    between atoms: _333  and  _334
REMARK  130  A    between atoms: _336  and  _338
REMARK  131  A    between atoms: _338  and  _339
REMARK  132  A    between atoms: _338  and  _341
REMARK  133  A    between atoms: _341  and  _342
REMARK  134  A    between atoms: _347  and  _349
REMARK  135  A    between atoms: _349  and  _350
REMARK  136  A    between atoms: _349  and  _352
REMARK  137  A    between atoms: _352  and  _353
REMARK  138  A    between atoms: _358  and  _359
REMARK  139  A    between atoms: _361  and  _363
REMARK  140  A    between atoms: _363  and  _364
REMARK  141  A    between atoms: _363  and  _366
REMARK  142  A    between atoms: _366  and  _367
REMARK  143  A    between atoms: _372  and  _373
REMARK  144  A    between atoms: _375  and  _377
REMARK  145  A    between atoms: _377  and  _378
REMARK  146  A    between atoms: _377  and  _380
REMARK  147  A    between atoms: _380  and  _381
REMARK  148  A    between atoms: _384  and  _386
REMARK  149  A    between atoms: _386  and  _387
REMARK  150  A    between atoms: _386  and  _389
REMARK  151  A    between atoms: _389  and  _390
REMARK  152  A    between atoms: _395  and  _397
REMARK  153  A    between atoms: _397  and  _398
REMARK  154  A    between atoms: _397  and  _400
REMARK  155  A    between atoms: _400  and  _401
REMARK  156  A    between atoms: _401  and  _402
REMARK  157  A    between atoms: _407  and  _409
REMARK  158  A    between atoms: _409  and  _410
REMARK  159  A    between atoms: _409  and  _412
REMARK  160  A    between atoms: _412  and  _413
REMARK  161  A    between atoms: _416  and  _418
REMARK  162  A    between atoms: _418  and  _419
REMARK  163  A    between atoms: _421  and  _423
REMARK  164  A    between atoms: _423  and  _424
REMARK  165  A    between atoms: _423  and  _426
REMARK  166  A    between atoms: _430  and  _431
REMARK  167  A    between atoms: _436  and  _438
REMARK  168  A    between atoms: _438  and  _439
REMARK  169  A    between atoms: _442  and  _444
REMARK  170  A    between atoms: _444  and  _445
REMARK  171  A    between atoms: _444  and  _447
REMARK  172  A    between atoms: _447  and  _448
REMARK  173  A    between atoms: _454  and  _456
REMARK  174  A    between atoms: _456  and  _457
REMARK  175  A    between atoms: _456  and  _459
REMARK  176  A    between atoms: _459  and  _460
REMARK  177  A    between atoms: _463  and  _465
REMARK  178  A    between atoms: _465  and  _466
REMARK  179  A    between atoms: _465  and  _468
REMARK  180  A    between atoms: _468  and  _469
REMARK  181  A    between atoms: _469  and  _470
REMARK  182  A    between atoms: _473  and  _475
REMARK  183  A    between atoms: _475  and  _476
REMARK  184  A    between atoms: _475  and  _478
REMARK  185  A    between atoms: _478  and  _479
REMARK  186  A    between atoms: _484  and  _486
REMARK  187  A    between atoms: _486  and  _487
REMARK  188  A    between atoms: _489  and  _491
REMARK  189  A    between atoms: _491  and  _492
REMARK  190  A    between atoms: _491  and  _494
REMARK  191  A    between atoms: _494  and  _495
REMARK  192  A    between atoms: _495  and  _496
REMARK  193  A    between atoms: _498  and  _500
REMARK  194  A    between atoms: _500  and  _501
REMARK  195  A    between atoms: _503  and  _505
REMARK  196  A    between atoms: _505  and  _506
REMARK  197  A    between atoms: _505  and  _508
REMARK  198  A    between atoms: _508  and  _509
REMARK  199  A    between atoms: _519  and  _521
REMARK  200  A    between atoms: _521  and  _522
REMARK  201  A    between atoms: _525  and  _527
REMARK  202  A    between atoms: _527  and  _528
REMARK  203  A    between atoms: _527  and  _530
REMARK  204  A    between atoms: _530  and  _531
REMARK  205  A    between atoms: _534  and  _536
REMARK  206  A    between atoms: _536  and  _537
REMARK  207  A    between atoms: _536  and  _539
REMARK  208  A    between atoms: _539  and  _540
REMARK  209  A    between atoms: _545  and  _547
REMARK  210  A    between atoms: _547  and  _548
REMARK  211  A    between atoms: _547  and  _550
REMARK  212  A    between atoms: _550  and  _551
REMARK  213  A    between atoms: _557  and  _559
REMARK  214  A    between atoms: _559  and  _560
REMARK  215  A    between atoms: _559  and  _562
REMARK  216  A    between atoms: _562  and  _563
REMARK  217  A    between atoms: _563  and  _564
REMARK  218  A    between atoms: _567  and  _569
REMARK  219  A    between atoms: _569  and  _570
REMARK  220  A    between atoms: _569  and  _572
REMARK  221  A    between atoms: _572  and  _573
REMARK  222  A    between atoms: _583  and  _585
REMARK  223  A    between atoms: _585  and  _586
REMARK  224  A    between atoms: _585  and  _588
REMARK  225  A    between atoms: _588  and  _589
REMARK  226  A    between atoms: _592  and  _594
REMARK  227  A    between atoms: _594  and  _595
REMARK  228  A    between atoms: _594  and  _597
REMARK  229  A    between atoms: _597  and  _598
REMARK  230  A    between atoms: _600  and  _602
REMARK  231  A    between atoms: _602  and  _603
REMARK  232  A    between atoms: _605  and  _607
REMARK  233  A    between atoms: _607  and  _608
REMARK  234  A    between atoms: _607  and  _610
REMARK  235  A    between atoms: _610  and  _611
REMARK  236  A    between atoms: _614  and  _616
REMARK  237  A    between atoms: _616  and  _617
REMARK  238  A    between atoms: _616  and  _619
REMARK  239  A    between atoms: _619  and  _620
REMARK  240  A    between atoms: _620  and  _621
REMARK  241  A    between atoms: _626  and  _628
REMARK  242  A    between atoms: _628  and  _629
REMARK  243  A    between atoms: _628  and  _631
REMARK  244  A    between atoms: _631  and  _632
REMARK                            x       y       z     vdW  Elec       q    Type
REMARK                         _______ _______ _______ _____ _____    ______ ____
ROOT
ATOM      1  O   HOH     1      -5.567  33.995  31.088  0.00  0.00    +0.000 OA
ENDROOT
TORSDOF 0
REMARK  Name = ../refined-set-2016/3wq6/3wq6_pocket.pdb
REMARK  244 active torsions:
REMARK  status: ('A' for Active; 'I' for Inactive)
REMARK    1  A    between atoms: _1  and  _3
REMARK    2  A    between atoms: _3  and  _4
REMARK    3  A    between atoms: _7  and  _9
REMARK    4  A    between atoms: _9  and  _10
REMARK    5  A    between atoms: _9  and  _12
REMARK    6  A    between atoms: _12  and  _13
REMARK    7  A    between atoms: _15  and  _17
REMARK    8  A    between atoms: _17  and  _18
REMARK    9  A    between atoms: _17  and  _20
REMARK   10  A    between atoms: _20  and  _21
REMARK   11  A    between atoms: _23  and  _25
REMARK   12  A    between atoms: _25  and  _26
REMARK   13  A    between atoms: _29  and  _31
REMARK   14  A    between atoms: _31  and  _32
REMARK   15  A    between atoms: _31  and  _34
REMARK   16  A    between atoms: _34  and  _35
REMARK   17  A    between atoms: _40  and  _41
REMARK   18  A    between atoms: _43  and  _45
REMARK   19  A    between atoms: _45  and  _46
REMARK   20  A    between atoms: _45  and  _48
REMARK   21  A    between atoms: _48  and  _49
REMARK   22  A    between atoms: _49  and  _50
REMARK   23  A    between atoms: _55  and  _57
REMARK   24  A    between atoms: _57  and  _58
REMARK   25  A    between atoms: _57  and  _60
REMARK   26  A    between atoms: _60  and  _61
REMARK   27  A    between atoms: _67  and  _69
REMARK   28  A    between atoms: _69  and  _70
REMARK   29  A    between atoms: _69  and  _72
REMARK   30  A    between atoms: _72  and  _73
REMARK   31  A    between atoms: _83  and  _85
REMARK   32  A    between atoms: _85  and  _86
REMARK   33  A    between atoms: _85  and  _88
REMARK   34  A    between atoms: _88  and  _89
REMARK   35  A    between atoms: _91  and  _93
REMARK   36  A    between atoms: _93  and  _94
REMARK   37  A    between atoms: _93  and  _96
REMARK   38  A    between atoms: _96  and  _97
REMARK   39  A    between atoms: _97  and  _98
REMARK   40  A    between atoms: _98  and  _99
REMARK   41  A    between atoms: _108  and  _110
REMARK   42  A    between atoms: _110  and  _111
REMARK   43  A    between atoms: _110  and  _113
REMARK   44  A    between atoms: _113  and  _114
REMARK   45  A    between atoms: _117  and  _119
REMARK   46  A    between atoms: _119  and  _120
REMARK   47  A    between atoms: _119  and  _122
REMARK   48  A    between atoms: _122  and  _123
REMARK   49  A    between atoms: _128  and  _130
REMARK   50  A    between atoms: _130  and  _131
REMARK   51  A    between atoms: _130  and  _133
REMARK   52  A    between atoms: _133  and  _134
REMARK   53  A    between atoms: _144  and  _146
REMARK   54  A    between atoms: _146  and  _147
REMARK   55  A    between atoms: _146  and  _149
REMARK   56  A    between atoms: _149  and  _150
REMARK   57  A    between atoms: _155  and  _157
REMARK   58  A    between atoms: _157  and  _158
REMARK   59  A    between atoms: _157  and  _160
REMARK   60  A    between atoms: _160  and  _161
REMARK   61  A    between atoms: _161  and  _162
REMARK   62  A    between atoms: _165  and  _167
REMARK   63  A    between atoms: _167  and  _168
REMARK   64  A    between atoms: _167  and  _170
REMARK   65  A    between atoms: _170  and  _171
REMARK   66  A    between atoms: _181  and  _183
REMARK   67  A    between atoms: _183  and  _184
REMARK   68  A    between atoms: _183  and  _186
REMARK   69  A    between atoms: _186  and  _187
REMARK   70  A    between atoms: _189  and  _191
REMARK   71  A    between atoms: _191  and  _192
REMARK   72  A    between atoms: _191  and  _194
REMARK   73  A    between atoms: _194  and  _195
REMARK   74  A    between atoms: _200  and  _201
REMARK   75  A    between atoms: _203  and  _205
REMARK   76  A    between atoms: _205  and  _206
REMARK   77  A    between atoms: _205  and  _208
REMARK   78  A    between atoms: _208  and  _209
REMARK   79  A    between atoms: _211  and  _213
REMARK   80  A    between atoms: _213  and  _214
REMARK   81  A    between atoms: _213  and  _216
REMARK   82  A    between atoms: _216  and  _217
REMARK   83  A    between atoms: _222  and  _223
REMARK   84  A    between atoms: _225  and  _227
REMARK   85  A    between atoms: _227  and  _228
REMARK   86  A    between atoms: _230  and  _232
REMARK   87  A    between atoms: _232  and  _233
REMARK   88  A    between atoms: _235  and  _237
REMARK   89  A    between atoms: _237  and  _238
REMARK   90  A    between atoms: _237  and  _240
REMARK   91  A    between atoms: _240  and  _241
REMARK   92  A    between atoms: _246  and  _247
REMARK   93  A    between atoms: _249  and  _251
REMARK   94  A    between atoms: _251  and  _252
REMARK   95  A    between atoms: _251  and  _254
REMARK   96  A    between atoms: _254  and  _255
REMARK   97  A    between atoms: _258  and  _260
REMARK   98  A    between atoms: _260  and  _261
REMARK   99  A    between atoms: _264  and  _266
REMARK  100  A    between atoms: _266  and  _267
REMARK  101  A    between atoms: _269  and  _271
REMARK  102  A    between atoms: _271  and  _272
REMARK  103  A    between atoms: _271  and  _274
REMARK  104  A    between atoms: _274  and  _275
REMARK  105  A    between atoms: _278  and  _280
REMARK  106  A    between atoms: _280  and  _281
REMARK  107  A    between atoms: _280  and  _283
REMARK  108  A    between atoms: _283  and  _284
REMARK  109  A    between atoms: _287  and  _289
REMARK  110  A    between atoms: _289  and  _290
REMARK  111  A    between atoms: _289  and  _292
REMARK  112  A    between atoms: _292  and  _293
REMARK  113  A    between atoms: _296  and  _298
REMARK  114  A    between atoms: _298  and  _299
REMARK  115  A    between atoms: _298  and  _301
REMARK  116  A    between atoms: _304  and  _306
REMARK  117  A    between atoms: _306  and  _307
REMARK  118  A    between atoms: _306  and  _309
REMARK  119  A    between atoms: _309  and  _310
REMARK  120  A    between atoms: _313  and  _315
REMARK  121  A    between atoms: _315  and  _316
REMARK  122  A    between atoms: _315  and  _318
REMARK  123  A    between atoms: _318  and  _319
REMARK  124  A    between atoms: _324  and  _325
REMARK  125  A    between atoms: _327  and  _329
REMARK  126  A    between atoms: _329  and  _330
REMARK  127  A    between atoms: _329  and  _332
REMARK  128  A    between atoms: _332  and  _333
REMARK  129  A    between atoms: _333  and  _334
REMARK  130  A    between atoms: _336  and  _338
REMARK  131  A    between atoms: _338  and  _339
REMARK  132  A    between atoms: _338  and  _341
REMARK  133  A    between atoms: _341  and  _342
REMARK  134  A    between atoms: _347  and  _349
REMARK  135  A    between atoms: _349  and  _350
REMARK  136  A    between atoms: _349  and  _352
REMARK  137  A    between atoms: _352  and  _353
REMARK  138  A    between atoms: _358  and  _359
REMARK  139  A    between atoms: _361  and  _363
REMARK  140  A    between atoms: _363  and  _364
REMARK  141  A    between atoms: _363  and  _366
REMARK  142  A    between atoms: _366  and  _367
REMARK  143  A    between atoms: _372  and  _373
REMARK  144  A    between atoms: _375  and  _377
REMARK  145  A    between atoms: _377  and  _378
REMARK  146  A    between atoms: _377  and  _380
REMARK  147  A    between atoms: _380  and  _381
REMARK  148  A    between atoms: _384  and  _386
REMARK  149  A    between atoms: _386  and  _387
REMARK  150  A    between atoms: _386  and  _389
REMARK  151  A    between atoms: _389  and  _390
REMARK  152  A    between atoms: _395  and  _397
REMARK  153  A    between atoms: _397  and  _398
REMARK  154  A    between atoms: _397  and  _400
REMARK  155  A    between atoms: _400  and  _401
REMARK  156  A    between atoms: _401  and  _402
REMARK  157  A    between atoms: _407  and  _409
REMARK  158  A    between atoms: _409  and  _410
REMARK  159  A    between atoms: _409  and  _412
REMARK  160  A    between atoms: _412  and  _413
REMARK  161  A    between atoms: _416  and  _418
REMARK  162  A    between atoms: _418  and  _419
REMARK  163  A    between atoms: _421  and  _423
REMARK  164  A    between atoms: _423  and  _424
REMARK  165  A    between atoms: _423  and  _426
REMARK  166  A    between atoms: _430  and  _431
REMARK  167  A    between atoms: _436  and  _438
REMARK  168  A    between atoms: _438  and  _439
REMARK  169  A    between atoms: _442  and  _444
REMARK  170  A    between atoms: _444  and  _445
REMARK  171  A    between atoms: _444  and  _447
REMARK  172  A    between atoms: _447  and  _448
REMARK  173  A    between atoms: _454  and  _456
REMARK  174  A    between atoms: _456  and  _457
REMARK  175  A    between atoms: _456  and  _459
REMARK  176  A    between atoms: _459  and  _460
REMARK  177  A    between atoms: _463  and  _465
REMARK  178  A    between atoms: _465  and  _466
REMARK  179  A    between atoms: _465  and  _468
REMARK  180  A    between atoms: _468  and  _469
REMARK  181  A    between atoms: _469  and  _470
REMARK  182  A    between atoms: _473  and  _475
REMARK  183  A    between atoms: _475  and  _476
REMARK  184  A    between atoms: _475  and  _478
REMARK  185  A    between atoms: _478  and  _479
REMARK  186  A    between atoms: _484  and  _486
REMARK  187  A    between atoms: _486  and  _487
REMARK  188  A    between atoms: _489  and  _491
REMARK  189  A    between atoms: _491  and  _492
REMARK  190  A    between atoms: _491  and  _494
REMARK  191  A    between atoms: _494  and  _495
REMARK  192  A    between atoms: _495  and  _496
REMARK  193  A    between atoms: _498  and  _500
REMARK  194  A    between atoms: _500  and  _501
REMARK  195  A    between atoms: _503  and  _505
REMARK  196  A    between atoms: _505  and  _506
REMARK  197  A    between atoms: _505  and  _508
REMARK  198  A    between atoms: _508  and  _509
REMARK  199  A    between atoms: _519  and  _521
REMARK  200  A    between atoms: _521  and  _522
REMARK  201  A    between atoms: _525  and  _527
REMARK  202  A    between atoms: _527  and  _528
REMARK  203  A    between atoms: _527  and  _530
REMARK  204  A    between atoms: _530  and  _531
REMARK  205  A    between atoms: _534  and  _536
REMARK  206  A    between atoms: _536  and  _537
REMARK  207  A    between atoms: _536  and  _539
REMARK  208  A    between atoms: _539  and  _540
REMARK  209  A    between atoms: _545  and  _547
REMARK  210  A    between atoms: _547  and  _548
REMARK  211  A    between atoms: _547  and  _550
REMARK  212  A    between atoms: _550  and  _551
REMARK  213  A    between atoms: _557  and  _559
REMARK  214  A    between atoms: _559  and  _560
REMARK  215  A    between atoms: _559  and  _562
REMARK  216  A    between atoms: _562  and  _563
REMARK  217  A    between atoms: _563  and  _564
REMARK  218  A    between atoms: _567  and  _569
REMARK  219  A    between atoms: _569  and  _570
REMARK  220  A    between atoms: _569  and  _572
REMARK  221  A    between atoms: _572  and  _573
REMARK  222  A    between atoms: _583  and  _585
REMARK  223  A    between atoms: _585  and  _586
REMARK  224  A    between atoms: _585  and  _588
REMARK  225  A    between atoms: _588  and  _589
REMARK  226  A    between atoms: _592  and  _594
REMARK  227  A    between atoms: _594  and  _595
REMARK  228  A    between atoms: _594  and  _597
REMARK  229  A    between atoms: _597  and  _598
REMARK  230  A    between atoms: _600  and  _602
REMARK  231  A    between atoms: _602  and  _603
REMARK  232  A    between atoms: _605  and  _607
REMARK  233  A    between atoms: _607  and  _608
REMARK  234  A    between atoms: _607  and  _610
REMARK  235  A    between atoms: _610  and  _611
REMARK  236  A    between atoms: _614  and  _616
REMARK  237  A    between atoms: _616  and  _617
REMARK  238  A    between atoms: _616  and  _619
REMARK  239  A    between atoms: _619  and  _620
REMARK  240  A    between atoms: _620  and  _621
REMARK  241  A    between atoms: _626  and  _628
REMARK  242  A    between atoms: _628  and  _629
REMARK  243  A    between atoms: _628  and  _631
REMARK  244  A    between atoms: _631  and  _632
REMARK                            x       y       z     vdW  Elec       q    Type
REMARK                         _______ _______ _______ _____ _____    ______ ____
ROOT
ATOM      1  O   HOH     1      -5.936  25.624  23.822  0.00  0.00    +0.000 OA
ENDROOT
TORSDOF 0
REMARK  Name = ../refined-set-2016/3wq6/3wq6_pocket.pdb
REMARK  244 active torsions:
REMARK  status: ('A' for Active; 'I' for Inactive)
REMARK    1  A    between atoms: _1  and  _3
REMARK    2  A    between atoms: _3  and  _4
REMARK    3  A    between atoms: _7  and  _9
REMARK    4  A    between atoms: _9  and  _10
REMARK    5  A    between atoms: _9  and  _12
REMARK    6  A    between atoms: _12  and  _13
REMARK    7  A    between atoms: _15  and  _17
REMARK    8  A    between atoms: _17  and  _18
REMARK    9  A    between atoms: _17  and  _20
REMARK   10  A    between atoms: _20  and  _21
REMARK   11  A    between atoms: _23  and  _25
REMARK   12  A    between atoms: _25  and  _26
REMARK   13  A    between atoms: _29  and  _31
REMARK   14  A    between atoms: _31  and  _32
REMARK   15  A    between atoms: _31  and  _34
REMARK   16  A    between atoms: _34  and  _35
REMARK   17  A    between atoms: _40  and  _41
REMARK   18  A    between atoms: _43  and  _45
REMARK   19  A    between atoms: _45  and  _46
REMARK   20  A    between atoms: _45  and  _48
REMARK   21  A    between atoms: _48  and  _49
REMARK   22  A    between atoms: _49  and  _50
REMARK   23  A    between atoms: _55  and  _57
REMARK   24  A    between atoms: _57  and  _58
REMARK   25  A    between atoms: _57  and  _60
REMARK   26  A    between atoms: _60  and  _61
REMARK   27  A    between atoms: _67  and  _69
REMARK   28  A    between atoms: _69  and  _70
REMARK   29  A    between atoms: _69  and  _72
REMARK   30  A    between atoms: _72  and  _73
REMARK   31  A    between atoms: _83  and  _85
REMARK   32  A    between atoms: _85  and  _86
REMARK   33  A    between atoms: _85  and  _88
REMARK   34  A    between atoms: _88  and  _89
REMARK   35  A    between atoms: _91  and  _93
REMARK   36  A    between atoms: _93  and  _94
REMARK   37  A    between atoms: _93  and  _96
REMARK   38  A    between atoms: _96  and  _97
REMARK   39  A    between atoms: _97  and  _98
REMARK   40  A    between atoms: _98  and  _99
REMARK   41  A    between atoms: _108  and  _110
REMARK   42  A    between atoms: _110  and  _111
REMARK   43  A    between atoms: _110  and  _113
REMARK   44  A    between atoms: _113  and  _114
REMARK   45  A    between atoms: _117  and  _119
REMARK   46  A    between atoms: _119  and  _120
REMARK   47  A    between atoms: _119  and  _122
REMARK   48  A    between atoms: _122  and  _123
REMARK   49  A    between atoms: _128  and  _130
REMARK   50  A    between atoms: _130  and  _131
REMARK   51  A    between atoms: _130  and  _133
REMARK   52  A    between atoms: _133  and  _134
REMARK   53  A    between atoms: _144  and  _146
REMARK   54  A    between atoms: _146  and  _147
REMARK   55  A    between atoms: _146  and  _149
REMARK   56  A    between atoms: _149  and  _150
REMARK   57  A    between atoms: _155  and  _157
REMARK   58  A    between atoms: _157  and  _158
REMARK   59  A    between atoms: _157  and  _160
REMARK   60  A    between atoms: _160  and  _161
REMARK   61  A    between atoms: _161  and  _162
REMARK   62  A    between atoms: _165  and  _167
REMARK   63  A    between atoms: _167  and  _168
REMARK   64  A    between atoms: _167  and  _170
REMARK   65  A    between atoms: _170  and  _171
REMARK   66  A    between atoms: _181  and  _183
REMARK   67  A    between atoms: _183  and  _184
REMARK   68  A    between atoms: _183  and  _186
REMARK   69  A    between atoms: _186  and  _187
REMARK   70  A    between atoms: _189  and  _191
REMARK   71  A    between atoms: _191  and  _192
REMARK   72  A    between atoms: _191  and  _194
REMARK   73  A    between atoms: _194  and  _195
REMARK   74  A    between atoms: _200  and  _201
REMARK   75  A    between atoms: _203  and  _205
REMARK   76  A    between atoms: _205  and  _206
REMARK   77  A    between atoms: _205  and  _208
REMARK   78  A    between atoms: _208  and  _209
REMARK   79  A    between atoms: _211  and  _213
REMARK   80  A    between atoms: _213  and  _214
REMARK   81  A    between atoms: _213  and  _216
REMARK   82  A    between atoms: _216  and  _217
REMARK   83  A    between atoms: _222  and  _223
REMARK   84  A    between atoms: _225  and  _227
REMARK   85  A    between atoms: _227  and  _228
REMARK   86  A    between atoms: _230  and  _232
REMARK   87  A    between atoms: _232  and  _233
REMARK   88  A    between atoms: _235  and  _237
REMARK   89  A    between atoms: _237  and  _238
REMARK   90  A    between atoms: _237  and  _240
REMARK   91  A    between atoms: _240  and  _241
REMARK   92  A    between atoms: _246  and  _247
REMARK   93  A    between atoms: _249  and  _251
REMARK   94  A    between atoms: _251  and  _252
REMARK   95  A    between atoms: _251  and  _254
REMARK   96  A    between atoms: _254  and  _255
REMARK   97  A    between atoms: _258  and  _260
REMARK   98  A    between atoms: _260  and  _261
REMARK   99  A    between atoms: _264  and  _266
REMARK  100  A    between atoms: _266  and  _267
REMARK  101  A    between atoms: _269  and  _271
REMARK  102  A    between atoms: _271  and  _272
REMARK  103  A    between atoms: _271  and  _274
REMARK  104  A    between atoms: _274  and  _275
REMARK  105  A    between atoms: _278  and  _280
REMARK  106  A    between atoms: _280  and  _281
REMARK  107  A    between atoms: _280  and  _283
REMARK  108  A    between atoms: _283  and  _284
REMARK  109  A    between atoms: _287  and  _289
REMARK  110  A    between atoms: _289  and  _290
REMARK  111  A    between atoms: _289  and  _292
REMARK  112  A    between atoms: _292  and  _293
REMARK  113  A    between atoms: _296  and  _298
REMARK  114  A    between atoms: _298  and  _299
REMARK  115  A    between atoms: _298  and  _301
REMARK  116  A    between atoms: _304  and  _306
REMARK  117  A    between atoms: _306  and  _307
REMARK  118  A    between atoms: _306  and  _309
REMARK  119  A    between atoms: _309  and  _310
REMARK  120  A    between atoms: _313  and  _315
REMARK  121  A    between atoms: _315  and  _316
REMARK  122  A    between atoms: _315  and  _318
REMARK  123  A    between atoms: _318  and  _319
REMARK  124  A    between atoms: _324  and  _325
REMARK  125  A    between atoms: _327  and  _329
REMARK  126  A    between atoms: _329  and  _330
REMARK  127  A    between atoms: _329  and  _332
REMARK  128  A    between atoms: _332  and  _333
REMARK  129  A    between atoms: _333  and  _334
REMARK  130  A    between atoms: _336  and  _338
REMARK  131  A    between atoms: _338  and  _339
REMARK  132  A    between atoms: _338  and  _341
REMARK  133  A    between atoms: _341  and  _342
REMARK  134  A    between atoms: _347  and  _349
REMARK  135  A    between atoms: _349  and  _350
REMARK  136  A    between atoms: _349  and  _352
REMARK  137  A    between atoms: _352  and  _353
REMARK  138  A    between atoms: _358  and  _359
REMARK  139  A    between atoms: _361  and  _363
REMARK  140  A    between atoms: _363  and  _364
REMARK  141  A    between atoms: _363  and  _366
REMARK  142  A    between atoms: _366  and  _367
REMARK  143  A    between atoms: _372  and  _373
REMARK  144  A    between atoms: _375  and  _377
REMARK  145  A    between atoms: _377  and  _378
REMARK  146  A    between atoms: _377  and  _380
REMARK  147  A    between atoms: _380  and  _381
REMARK  148  A    between atoms: _384  and  _386
REMARK  149  A    between atoms: _386  and  _387
REMARK  150  A    between atoms: _386  and  _389
REMARK  151  A    between atoms: _389  and  _390
REMARK  152  A    between atoms: _395  and  _397
REMARK  153  A    between atoms: _397  and  _398
REMARK  154  A    between atoms: _397  and  _400
REMARK  155  A    between atoms: _400  and  _401
REMARK  156  A    between atoms: _401  and  _402
REMARK  157  A    between atoms: _407  and  _409
REMARK  158  A    between atoms: _409  and  _410
REMARK  159  A    between atoms: _409  and  _412
REMARK  160  A    between atoms: _412  and  _413
REMARK  161  A    between atoms: _416  and  _418
REMARK  162  A    between atoms: _418  and  _419
REMARK  163  A    between atoms: _421  and  _423
REMARK  164  A    between atoms: _423  and  _424
REMARK  165  A    between atoms: _423  and  _426
REMARK  166  A    between atoms: _430  and  _431
REMARK  167  A    between atoms: _436  and  _438
REMARK  168  A    between atoms: _438  and  _439
REMARK  169  A    between atoms: _442  and  _444
REMARK  170  A    between atoms: _444  and  _445
REMARK  171  A    between atoms: _444  and  _447
REMARK  172  A    between atoms: _447  and  _448
REMARK  173  A    between atoms: _454  and  _456
REMARK  174  A    between atoms: _456  and  _457
REMARK  175  A    between atoms: _456  and  _459
REMARK  176  A    between atoms: _459  and  _460
REMARK  177  A    between atoms: _463  and  _465
REMARK  178  A    between atoms: _465  and  _466
REMARK  179  A    between atoms: _465  and  _468
REMARK  180  A    between atoms: _468  and  _469
REMARK  181  A    between atoms: _469  and  _470
REMARK  182  A    between atoms: _473  and  _475
REMARK  183  A    between atoms: _475  and  _476
REMARK  184  A    between atoms: _475  and  _478
REMARK  185  A    between atoms: _478  and  _479
REMARK  186  A    between atoms: _484  and  _486
REMARK  187  A    between atoms: _486  and  _487
REMARK  188  A    between atoms: _489  and  _491
REMARK  189  A    between atoms: _491  and  _492
REMARK  190  A    between atoms: _491  and  _494
REMARK  191  A    between atoms: _494  and  _495
REMARK  192  A    between atoms: _495  and  _496
REMARK  193  A    between atoms: _498  and  _500
REMARK  194  A    between atoms: _500  and  _501
REMARK  195  A    between atoms: _503  and  _505
REMARK  196  A    between atoms: _505  and  _506
REMARK  197  A    between atoms: _505  and  _508
REMARK  198  A    between atoms: _508  and  _509
REMARK  199  A    between atoms: _519  and  _521
REMARK  200  A    between atoms: _521  and  _522
REMARK  201  A    between atoms: _525  and  _527
REMARK  202  A    between atoms: _527  and  _528
REMARK  203  A    between atoms: _527  and  _530
REMARK  204  A    between atoms: _530  and  _531
REMARK  205  A    between atoms: _534  and  _536
REMARK  206  A    between atoms: _536  and  _537
REMARK  207  A    between atoms: _536  and  _539
REMARK  208  A    between atoms: _539  and  _540
REMARK  209  A    between atoms: _545  and  _547
REMARK  210  A    between atoms: _547  and  _548
REMARK  211  A    between atoms: _547  and  _550
REMARK  212  A    between atoms: _550  and  _551
REMARK  213  A    between atoms: _557  and  _559
REMARK  214  A    between atoms: _559  and  _560
REMARK  215  A    between atoms: _559  and  _562
REMARK  216  A    between atoms: _562  and  _563
REMARK  217  A    between atoms: _563  and  _564
REMARK  218  A    between atoms: _567  and  _569
REMARK  219  A    between atoms: _569  and  _570
REMARK  220  A    between atoms: _569  and  _572
REMARK  221  A    between atoms: _572  and  _573
REMARK  222  A    between atoms: _583  and  _585
REMARK  223  A    between atoms: _585  and  _586
REMARK  224  A    between atoms: _585  and  _588
REMARK  225  A    between atoms: _588  and  _589
REMARK  226  A    between atoms: _592  and  _594
REMARK  227  A    between atoms: _594  and  _595
REMARK  228  A    between atoms: _594  and  _597
REMARK  229  A    between atoms: _597  and  _598
REMARK  230  A    between atoms: _600  and  _602
REMARK  231  A    between atoms: _602  and  _603
REMARK  232  A    between atoms: _605  and  _607
REMARK  233  A    between atoms: _607  and  _608
REMARK  234  A    between atoms: _607  and  _610
REMARK  235  A    between atoms: _610  and  _611
REMARK  236  A    between atoms: _614  and  _616
REMARK  237  A    between atoms: _616  and  _617
REMARK  238  A    between atoms: _616  and  _619
REMARK  239  A    between atoms: _619  and  _620
REMARK  240  A    between atoms: _620  and  _621
REMARK  241  A    between atoms: _626  and  _628
REMARK  242  A    between atoms: _628  and  _629
REMARK  243  A    between atoms: _628  and  _631
REMARK  244  A    between atoms: _631  and  _632
REMARK                            x       y       z     vdW  Elec       q    Type
REMARK                         _______ _______ _______ _____ _____    ______ ____
ROOT
ATOM      1  O   HOH     1       3.922  42.202  20.702  0.00  0.00    +0.000 OA
ENDROOT
TORSDOF 0
REMARK  Name = ../refined-set-2016/3wq6/3wq6_pocket.pdb
REMARK  244 active torsions:
REMARK  status: ('A' for Active; 'I' for Inactive)
REMARK    1  A    between atoms: _1  and  _3
REMARK    2  A    between atoms: _3  and  _4
REMARK    3  A    between atoms: _7  and  _9
REMARK    4  A    between atoms: _9  and  _10
REMARK    5  A    between atoms: _9  and  _12
REMARK    6  A    between atoms: _12  and  _13
REMARK    7  A    between atoms: _15  and  _17
REMARK    8  A    between atoms: _17  and  _18
REMARK    9  A    between atoms: _17  and  _20
REMARK   10  A    between atoms: _20  and  _21
REMARK   11  A    between atoms: _23  and  _25
REMARK   12  A    between atoms: _25  and  _26
REMARK   13  A    between atoms: _29  and  _31
REMARK   14  A    between atoms: _31  and  _32
REMARK   15  A    between atoms: _31  and  _34
REMARK   16  A    between atoms: _34  and  _35
REMARK   17  A    between atoms: _40  and  _41
REMARK   18  A    between atoms: _43  and  _45
REMARK   19  A    between atoms: _45  and  _46
REMARK   20  A    between atoms: _45  and  _48
REMARK   21  A    between atoms: _48  and  _49
REMARK   22  A    between atoms: _49  and  _50
REMARK   23  A    between atoms: _55  and  _57
REMARK   24  A    between atoms: _57  and  _58
REMARK   25  A    between atoms: _57  and  _60
REMARK   26  A    between atoms: _60  and  _61
REMARK   27  A    between atoms: _67  and  _69
REMARK   28  A    between atoms: _69  and  _70
REMARK   29  A    between atoms: _69  and  _72
REMARK   30  A    between atoms: _72  and  _73
REMARK   31  A    between atoms: _83  and  _85
REMARK   32  A    between atoms: _85  and  _86
REMARK   33  A    between atoms: _85  and  _88
REMARK   34  A    between atoms: _88  and  _89
REMARK   35  A    between atoms: _91  and  _93
REMARK   36  A    between atoms: _93  and  _94
REMARK   37  A    between atoms: _93  and  _96
REMARK   38  A    between atoms: _96  and  _97
REMARK   39  A    between atoms: _97  and  _98
REMARK   40  A    between atoms: _98  and  _99
REMARK   41  A    between atoms: _108  and  _110
REMARK   42  A    between atoms: _110  and  _111
REMARK   43  A    between atoms: _110  and  _113
REMARK   44  A    between atoms: _113  and  _114
REMARK   45  A    between atoms: _117  and  _119
REMARK   46  A    between atoms: _119  and  _120
REMARK   47  A    between atoms: _119  and  _122
REMARK   48  A    between atoms: _122  and  _123
REMARK   49  A    between atoms: _128  and  _130
REMARK   50  A    between atoms: _130  and  _131
REMARK   51  A    between atoms: _130  and  _133
REMARK   52  A    between atoms: _133  and  _134
REMARK   53  A    between atoms: _144  and  _146
REMARK   54  A    between atoms: _146  and  _147
REMARK   55  A    between atoms: _146  and  _149
REMARK   56  A    between atoms: _149  and  _150
REMARK   57  A    between atoms: _155  and  _157
REMARK   58  A    between atoms: _157  and  _158
REMARK   59  A    between atoms: _157  and  _160
REMARK   60  A    between atoms: _160  and  _161
REMARK   61  A    between atoms: _161  and  _162
REMARK   62  A    between atoms: _165  and  _167
REMARK   63  A    between atoms: _167  and  _168
REMARK   64  A    between atoms: _167  and  _170
REMARK   65  A    between atoms: _170  and  _171
REMARK   66  A    between atoms: _181  and  _183
REMARK   67  A    between atoms: _183  and  _184
REMARK   68  A    between atoms: _183  and  _186
REMARK   69  A    between atoms: _186  and  _187
REMARK   70  A    between atoms: _189  and  _191
REMARK   71  A    between atoms: _191  and  _192
REMARK   72  A    between atoms: _191  and  _194
REMARK   73  A    between atoms: _194  and  _195
REMARK   74  A    between atoms: _200  and  _201
REMARK   75  A    between atoms: _203  and  _205
REMARK   76  A    between atoms: _205  and  _206
REMARK   77  A    between atoms: _205  and  _208
REMARK   78  A    between atoms: _208  and  _209
REMARK   79  A    between atoms: _211  and  _213
REMARK   80  A    between atoms: _213  and  _214
REMARK   81  A    between atoms: _213  and  _216
REMARK   82  A    between atoms: _216  and  _217
REMARK   83  A    between atoms: _222  and  _223
REMARK   84  A    between atoms: _225  and  _227
REMARK   85  A    between atoms: _227  and  _228
REMARK   86  A    between atoms: _230  and  _232
REMARK   87  A    between atoms: _232  and  _233
REMARK   88  A    between atoms: _235  and  _237
REMARK   89  A    between atoms: _237  and  _238
REMARK   90  A    between atoms: _237  and  _240
REMARK   91  A    between atoms: _240  and  _241
REMARK   92  A    between atoms: _246  and  _247
REMARK   93  A    between atoms: _249  and  _251
REMARK   94  A    between atoms: _251  and  _252
REMARK   95  A    between atoms: _251  and  _254
REMARK   96  A    between atoms: _254  and  _255
REMARK   97  A    between atoms: _258  and  _260
REMARK   98  A    between atoms: _260  and  _261
REMARK   99  A    between atoms: _264  and  _266
REMARK  100  A    between atoms: _266  and  _267
REMARK  101  A    between atoms: _269  and  _271
REMARK  102  A    between atoms: _271  and  _272
REMARK  103  A    between atoms: _271  and  _274
REMARK  104  A    between atoms: _274  and  _275
REMARK  105  A    between atoms: _278  and  _280
REMARK  106  A    between atoms: _280  and  _281
REMARK  107  A    between atoms: _280  and  _283
REMARK  108  A    between atoms: _283  and  _284
REMARK  109  A    between atoms: _287  and  _289
REMARK  110  A    between atoms: _289  and  _290
REMARK  111  A    between atoms: _289  and  _292
REMARK  112  A    between atoms: _292  and  _293
REMARK  113  A    between atoms: _296  and  _298
REMARK  114  A    between atoms: _298  and  _299
REMARK  115  A    between atoms: _298  and  _301
REMARK  116  A    between atoms: _304  and  _306
REMARK  117  A    between atoms: _306  and  _307
REMARK  118  A    between atoms: _306  and  _309
REMARK  119  A    between atoms: _309  and  _310
REMARK  120  A    between atoms: _313  and  _315
REMARK  121  A    between atoms: _315  and  _316
REMARK  122  A    between atoms: _315  and  _318
REMARK  123  A    between atoms: _318  and  _319
REMARK  124  A    between atoms: _324  and  _325
REMARK  125  A    between atoms: _327  and  _329
REMARK  126  A    between atoms: _329  and  _330
REMARK  127  A    between atoms: _329  and  _332
REMARK  128  A    between atoms: _332  and  _333
REMARK  129  A    between atoms: _333  and  _334
REMARK  130  A    between atoms: _336  and  _338
REMARK  131  A    between atoms: _338  and  _339
REMARK  132  A    between atoms: _338  and  _341
REMARK  133  A    between atoms: _341  and  _342
REMARK  134  A    between atoms: _347  and  _349
REMARK  135  A    between atoms: _349  and  _350
REMARK  136  A    between atoms: _349  and  _352
REMARK  137  A    between atoms: _352  and  _353
REMARK  138  A    between atoms: _358  and  _359
REMARK  139  A    between atoms: _361  and  _363
REMARK  140  A    between atoms: _363  and  _364
REMARK  141  A    between atoms: _363  and  _366
REMARK  142  A    between atoms: _366  and  _367
REMARK  143  A    between atoms: _372  and  _373
REMARK  144  A    between atoms: _375  and  _377
REMARK  145  A    between atoms: _377  and  _378
REMARK  146  A    between atoms: _377  and  _380
REMARK  147  A    between atoms: _380  and  _381
REMARK  148  A    between atoms: _384  and  _386
REMARK  149  A    between atoms: _386  and  _387
REMARK  150  A    between atoms: _386  and  _389
REMARK  151  A    between atoms: _389  and  _390
REMARK  152  A    between atoms: _395  and  _397
REMARK  153  A    between atoms: _397  and  _398
REMARK  154  A    between atoms: _397  and  _400
REMARK  155  A    between atoms: _400  and  _401
REMARK  156  A    between atoms: _401  and  _402
REMARK  157  A    between atoms: _407  and  _409
REMARK  158  A    between atoms: _409  and  _410
REMARK  159  A    between atoms: _409  and  _412
REMARK  160  A    between atoms: _412  and  _413
REMARK  161  A    between atoms: _416  and  _418
REMARK  162  A    between atoms: _418  and  _419
REMARK  163  A    between atoms: _421  and  _423
REMARK  164  A    between atoms: _423  and  _424
REMARK  165  A    between atoms: _423  and  _426
REMARK  166  A    between atoms: _430  and  _431
REMARK  167  A    between atoms: _436  and  _438
REMARK  168  A    between atoms: _438  and  _439
REMARK  169  A    between atoms: _442  and  _444
REMARK  170  A    between atoms: _444  and  _445
REMARK  171  A    between atoms: _444  and  _447
REMARK  172  A    between atoms: _447  and  _448
REMARK  173  A    between atoms: _454  and  _456
REMARK  174  A    between atoms: _456  and  _457
REMARK  175  A    between atoms: _456  and  _459
REMARK  176  A    between atoms: _459  and  _460
REMARK  177  A    between atoms: _463  and  _465
REMARK  178  A    between atoms: _465  and  _466
REMARK  179  A    between atoms: _465  and  _468
REMARK  180  A    between atoms: _468  and  _469
REMARK  181  A    between atoms: _469  and  _470
REMARK  182  A    between atoms: _473  and  _475
REMARK  183  A    between atoms: _475  and  _476
REMARK  184  A    between atoms: _475  and  _478
REMARK  185  A    between atoms: _478  and  _479
REMARK  186  A    between atoms: _484  and  _486
REMARK  187  A    between atoms: _486  and  _487
REMARK  188  A    between atoms: _489  and  _491
REMARK  189  A    between atoms: _491  and  _492
REMARK  190  A    between atoms: _491  and  _494
REMARK  191  A    between atoms: _494  and  _495
REMARK  192  A    between atoms: _495  and  _496
REMARK  193  A    between atoms: _498  and  _500
REMARK  194  A    between atoms: _500  and  _501
REMARK  195  A    between atoms: _503  and  _505
REMARK  196  A    between atoms: _505  and  _506
REMARK  197  A    between atoms: _505  and  _508
REMARK  198  A    between atoms: _508  and  _509
REMARK  199  A    between atoms: _519  and  _521
REMARK  200  A    between atoms: _521  and  _522
REMARK  201  A    between atoms: _525  and  _527
REMARK  202  A    between atoms: _527  and  _528
REMARK  203  A    between atoms: _527  and  _530
REMARK  204  A    between atoms: _530  and  _531
REMARK  205  A    between atoms: _534  and  _536
REMARK  206  A    between atoms: _536  and  _537
REMARK  207  A    between atoms: _536  and  _539
REMARK  208  A    between atoms: _539  and  _540
REMARK  209  A    between atoms: _545  and  _547
REMARK  210  A    between atoms: _547  and  _548
REMARK  211  A    between atoms: _547  and  _550
REMARK  212  A    between atoms: _550  and  _551
REMARK  213  A    between atoms: _557  and  _559
REMARK  214  A    between atoms: _559  and  _560
REMARK  215  A    between atoms: _559  and  _562
REMARK  216  A    between atoms: _562  and  _563
REMARK  217  A    between atoms: _563  and  _564
REMARK  218  A    between atoms: _567  and  _569
REMARK  219  A    between atoms: _569  and  _570
REMARK  220  A    between atoms: _569  and  _572
REMARK  221  A    between atoms: _572  and  _573
REMARK  222  A    between atoms: _583  and  _585
REMARK  223  A    between atoms: _585  and  _586
REMARK  224  A    between atoms: _585  and  _588
REMARK  225  A    between atoms: _588  and  _589
REMARK  226  A    between atoms: _592  and  _594
REMARK  227  A    between atoms: _594  and  _595
REMARK  228  A    between atoms: _594  and  _597
REMARK  229  A    between atoms: _597  and  _598
REMARK  230  A    between atoms: _600  and  _602
REMARK  231  A    between atoms: _602  and  _603
REMARK  232  A    between atoms: _605  and  _607
REMARK  233  A    between atoms: _607  and  _608
REMARK  234  A    between atoms: _607  and  _610
REMARK  235  A    between atoms: _610  and  _611
REMARK  236  A    between atoms: _614  and  _616
REMARK  237  A    between atoms: _616  and  _617
REMARK  238  A    between atoms: _616  and  _619
REMARK  239  A    between atoms: _619  and  _620
REMARK  240  A    between atoms: _620  and  _621
REMARK  241  A    between atoms: _626  and  _628
REMARK  242  A    between atoms: _628  and  _629
REMARK  243  A    between atoms: _628  and  _631
REMARK  244  A    between atoms: _631  and  _632
REMARK                            x       y       z     vdW  Elec       q    Type
REMARK                         _______ _______ _______ _____ _____    ______ ____
ROOT
ATOM      1  O   HOH     1      -8.111  27.305  24.420  0.00  0.00    +0.000 OA
ENDROOT
TORSDOF 0
REMARK  Name = ../refined-set-2016/3wq6/3wq6_pocket.pdb
REMARK  244 active torsions:
REMARK  status: ('A' for Active; 'I' for Inactive)
REMARK    1  A    between atoms: _1  and  _3
REMARK    2  A    between atoms: _3  and  _4
REMARK    3  A    between atoms: _7  and  _9
REMARK    4  A    between atoms: _9  and  _10
REMARK    5  A    between atoms: _9  and  _12
REMARK    6  A    between atoms: _12  and  _13
REMARK    7  A    between atoms: _15  and  _17
REMARK    8  A    between atoms: _17  and  _18
REMARK    9  A    between atoms: _17  and  _20
REMARK   10  A    between atoms: _20  and  _21
REMARK   11  A    between atoms: _23  and  _25
REMARK   12  A    between atoms: _25  and  _26
REMARK   13  A    between atoms: _29  and  _31
REMARK   14  A    between atoms: _31  and  _32
REMARK   15  A    between atoms: _31  and  _34
REMARK   16  A    between atoms: _34  and  _35
REMARK   17  A    between atoms: _40  and  _41
REMARK   18  A    between atoms: _43  and  _45
REMARK   19  A    between atoms: _45  and  _46
REMARK   20  A    between atoms: _45  and  _48
REMARK   21  A    between atoms: _48  and  _49
REMARK   22  A    between atoms: _49  and  _50
REMARK   23  A    between atoms: _55  and  _57
REMARK   24  A    between atoms: _57  and  _58
REMARK   25  A    between atoms: _57  and  _60
REMARK   26  A    between atoms: _60  and  _61
REMARK   27  A    between atoms: _67  and  _69
REMARK   28  A    between atoms: _69  and  _70
REMARK   29  A    between atoms: _69  and  _72
REMARK   30  A    between atoms: _72  and  _73
REMARK   31  A    between atoms: _83  and  _85
REMARK   32  A    between atoms: _85  and  _86
REMARK   33  A    between atoms: _85  and  _88
REMARK   34  A    between atoms: _88  and  _89
REMARK   35  A    between atoms: _91  and  _93
REMARK   36  A    between atoms: _93  and  _94
REMARK   37  A    between atoms: _93  and  _96
REMARK   38  A    between atoms: _96  and  _97
REMARK   39  A    between atoms: _97  and  _98
REMARK   40  A    between atoms: _98  and  _99
REMARK   41  A    between atoms: _108  and  _110
REMARK   42  A    between atoms: _110  and  _111
REMARK   43  A    between atoms: _110  and  _113
REMARK   44  A    between atoms: _113  and  _114
REMARK   45  A    between atoms: _117  and  _119
REMARK   46  A    between atoms: _119  and  _120
REMARK   47  A    between atoms: _119  and  _122
REMARK   48  A    between atoms: _122  and  _123
REMARK   49  A    between atoms: _128  and  _130
REMARK   50  A    between atoms: _130  and  _131
REMARK   51  A    between atoms: _130  and  _133
REMARK   52  A    between atoms: _133  and  _134
REMARK   53  A    between atoms: _144  and  _146
REMARK   54  A    between atoms: _146  and  _147
REMARK   55  A    between atoms: _146  and  _149
REMARK   56  A    between atoms: _149  and  _150
REMARK   57  A    between atoms: _155  and  _157
REMARK   58  A    between atoms: _157  and  _158
REMARK   59  A    between atoms: _157  and  _160
REMARK   60  A    between atoms: _160  and  _161
REMARK   61  A    between atoms: _161  and  _162
REMARK   62  A    between atoms: _165  and  _167
REMARK   63  A    between atoms: _167  and  _168
REMARK   64  A    between atoms: _167  and  _170
REMARK   65  A    between atoms: _170  and  _171
REMARK   66  A    between atoms: _181  and  _183
REMARK   67  A    between atoms: _183  and  _184
REMARK   68  A    between atoms: _183  and  _186
REMARK   69  A    between atoms: _186  and  _187
REMARK   70  A    between atoms: _189  and  _191
REMARK   71  A    between atoms: _191  and  _192
REMARK   72  A    between atoms: _191  and  _194
REMARK   73  A    between atoms: _194  and  _195
REMARK   74  A    between atoms: _200  and  _201
REMARK   75  A    between atoms: _203  and  _205
REMARK   76  A    between atoms: _205  and  _206
REMARK   77  A    between atoms: _205  and  _208
REMARK   78  A    between atoms: _208  and  _209
REMARK   79  A    between atoms: _211  and  _213
REMARK   80  A    between atoms: _213  and  _214
REMARK   81  A    between atoms: _213  and  _216
REMARK   82  A    between atoms: _216  and  _217
REMARK   83  A    between atoms: _222  and  _223
REMARK   84  A    between atoms: _225  and  _227
REMARK   85  A    between atoms: _227  and  _228
REMARK   86  A    between atoms: _230  and  _232
REMARK   87  A    between atoms: _232  and  _233
REMARK   88  A    between atoms: _235  and  _237
REMARK   89  A    between atoms: _237  and  _238
REMARK   90  A    between atoms: _237  and  _240
REMARK   91  A    between atoms: _240  and  _241
REMARK   92  A    between atoms: _246  and  _247
REMARK   93  A    between atoms: _249  and  _251
REMARK   94  A    between atoms: _251  and  _252
REMARK   95  A    between atoms: _251  and  _254
REMARK   96  A    between atoms: _254  and  _255
REMARK   97  A    between atoms: _258  and  _260
REMARK   98  A    between atoms: _260  and  _261
REMARK   99  A    between atoms: _264  and  _266
REMARK  100  A    between atoms: _266  and  _267
REMARK  101  A    between atoms: _269  and  _271
REMARK  102  A    between atoms: _271  and  _272
REMARK  103  A    between atoms: _271  and  _274
REMARK  104  A    between atoms: _274  and  _275
REMARK  105  A    between atoms: _278  and  _280
REMARK  106  A    between atoms: _280  and  _281
REMARK  107  A    between atoms: _280  and  _283
REMARK  108  A    between atoms: _283  and  _284
REMARK  109  A    between atoms: _287  and  _289
REMARK  110  A    between atoms: _289  and  _290
REMARK  111  A    between atoms: _289  and  _292
REMARK  112  A    between atoms: _292  and  _293
REMARK  113  A    between atoms: _296  and  _298
REMARK  114  A    between atoms: _298  and  _299
REMARK  115  A    between atoms: _298  and  _301
REMARK  116  A    between atoms: _304  and  _306
REMARK  117  A    between atoms: _306  and  _307
REMARK  118  A    between atoms: _306  and  _309
REMARK  119  A    between atoms: _309  and  _310
REMARK  120  A    between atoms: _313  and  _315
REMARK  121  A    between atoms: _315  and  _316
REMARK  122  A    between atoms: _315  and  _318
REMARK  123  A    between atoms: _318  and  _319
REMARK  124  A    between atoms: _324  and  _325
REMARK  125  A    between atoms: _327  and  _329
REMARK  126  A    between atoms: _329  and  _330
REMARK  127  A    between atoms: _329  and  _332
REMARK  128  A    between atoms: _332  and  _333
REMARK  129  A    between atoms: _333  and  _334
REMARK  130  A    between atoms: _336  and  _338
REMARK  131  A    between atoms: _338  and  _339
REMARK  132  A    between atoms: _338  and  _341
REMARK  133  A    between atoms: _341  and  _342
REMARK  134  A    between atoms: _347  and  _349
REMARK  135  A    between atoms: _349  and  _350
REMARK  136  A    between atoms: _349  and  _352
REMARK  137  A    between atoms: _352  and  _353
REMARK  138  A    between atoms: _358  and  _359
REMARK  139  A    between atoms: _361  and  _363
REMARK  140  A    between atoms: _363  and  _364
REMARK  141  A    between atoms: _363  and  _366
REMARK  142  A    between atoms: _366  and  _367
REMARK  143  A    between atoms: _372  and  _373
REMARK  144  A    between atoms: _375  and  _377
REMARK  145  A    between atoms: _377  and  _378
REMARK  146  A    between atoms: _377  and  _380
REMARK  147  A    between atoms: _380  and  _381
REMARK  148  A    between atoms: _384  and  _386
REMARK  149  A    between atoms: _386  and  _387
REMARK  150  A    between atoms: _386  and  _389
REMARK  151  A    between atoms: _389  and  _390
REMARK  152  A    between atoms: _395  and  _397
REMARK  153  A    between atoms: _397  and  _398
REMARK  154  A    between atoms: _397  and  _400
REMARK  155  A    between atoms: _400  and  _401
REMARK  156  A    between atoms: _401  and  _402
REMARK  157  A    between atoms: _407  and  _409
REMARK  158  A    between atoms: _409  and  _410
REMARK  159  A    between atoms: _409  and  _412
REMARK  160  A    between atoms: _412  and  _413
REMARK  161  A    between atoms: _416  and  _418
REMARK  162  A    between atoms: _418  and  _419
REMARK  163  A    between atoms: _421  and  _423
REMARK  164  A    between atoms: _423  and  _424
REMARK  165  A    between atoms: _423  and  _426
REMARK  166  A    between atoms: _430  and  _431
REMARK  167  A    between atoms: _436  and  _438
REMARK  168  A    between atoms: _438  and  _439
REMARK  169  A    between atoms: _442  and  _444
REMARK  170  A    between atoms: _444  and  _445
REMARK  171  A    between atoms: _444  and  _447
REMARK  172  A    between atoms: _447  and  _448
REMARK  173  A    between atoms: _454  and  _456
REMARK  174  A    between atoms: _456  and  _457
REMARK  175  A    between atoms: _456  and  _459
REMARK  176  A    between atoms: _459  and  _460
REMARK  177  A    between atoms: _463  and  _465
REMARK  178  A    between atoms: _465  and  _466
REMARK  179  A    between atoms: _465  and  _468
REMARK  180  A    between atoms: _468  and  _469
REMARK  181  A    between atoms: _469  and  _470
REMARK  182  A    between atoms: _473  and  _475
REMARK  183  A    between atoms: _475  and  _476
REMARK  184  A    between atoms: _475  and  _478
REMARK  185  A    between atoms: _478  and  _479
REMARK  186  A    between atoms: _484  and  _486
REMARK  187  A    between atoms: _486  and  _487
REMARK  188  A    between atoms: _489  and  _491
REMARK  189  A    between atoms: _491  and  _492
REMARK  190  A    between atoms: _491  and  _494
REMARK  191  A    between atoms: _494  and  _495
REMARK  192  A    between atoms: _495  and  _496
REMARK  193  A    between atoms: _498  and  _500
REMARK  194  A    between atoms: _500  and  _501
REMARK  195  A    between atoms: _503  and  _505
REMARK  196  A    between atoms: _505  and  _506
REMARK  197  A    between atoms: _505  and  _508
REMARK  198  A    between atoms: _508  and  _509
REMARK  199  A    between atoms: _519  and  _521
REMARK  200  A    between atoms: _521  and  _522
REMARK  201  A    between atoms: _525  and  _527
REMARK  202  A    between atoms: _527  and  _528
REMARK  203  A    between atoms: _527  and  _530
REMARK  204  A    between atoms: _530  and  _531
REMARK  205  A    between atoms: _534  and  _536
REMARK  206  A    between atoms: _536  and  _537
REMARK  207  A    between atoms: _536  and  _539
REMARK  208  A    between atoms: _539  and  _540
REMARK  209  A    between atoms: _545  and  _547
REMARK  210  A    between atoms: _547  and  _548
REMARK  211  A    between atoms: _547  and  _550
REMARK  212  A    between atoms: _550  and  _551
REMARK  213  A    between atoms: _557  and  _559
REMARK  214  A    between atoms: _559  and  _560
REMARK  215  A    between atoms: _559  and  _562
REMARK  216  A    between atoms: _562  and  _563
REMARK  217  A    between atoms: _563  and  _564
REMARK  218  A    between atoms: _567  and  _569
REMARK  219  A    between atoms: _569  and  _570
REMARK  220  A    between atoms: _569  and  _572
REMARK  221  A    between atoms: _572  and  _573
REMARK  222  A    between atoms: _583  and  _585
REMARK  223  A    between atoms: _585  and  _586
REMARK  224  A    between atoms: _585  and  _588
REMARK  225  A    between atoms: _588  and  _589
REMARK  226  A    between atoms: _592  and  _594
REMARK  227  A    between atoms: _594  and  _595
REMARK  228  A    between atoms: _594  and  _597
REMARK  229  A    between atoms: _597  and  _598
REMARK  230  A    between atoms: _600  and  _602
REMARK  231  A    between atoms: _602  and  _603
REMARK  232  A    between atoms: _605  and  _607
REMARK  233  A    between atoms: _607  and  _608
REMARK  234  A    between atoms: _607  and  _610
REMARK  235  A    between atoms: _610  and  _611
REMARK  236  A    between atoms: _614  and  _616
REMARK  237  A    between atoms: _616  and  _617
REMARK  238  A    between atoms: _616  and  _619
REMARK  239  A    between atoms: _619  and  _620
REMARK  240  A    between atoms: _620  and  _621
REMARK  241  A    between atoms: _626  and  _628
REMARK  242  A    between atoms: _628  and  _629
REMARK  243  A    between atoms: _628  and  _631
REMARK  244  A    between atoms: _631  and  _632
REMARK                            x       y       z     vdW  Elec       q    Type
REMARK                         _______ _______ _______ _____ _____    ______ ____
ROOT
ATOM      1  O   HOH     1       0.217  29.962  10.994  0.00  0.00    +0.000 OA
ENDROOT
TORSDOF 0
REMARK  Name = ../refined-set-2016/3wq6/3wq6_pocket.pdb
REMARK  244 active torsions:
REMARK  status: ('A' for Active; 'I' for Inactive)
REMARK    1  A    between atoms: _1  and  _3
REMARK    2  A    between atoms: _3  and  _4
REMARK    3  A    between atoms: _7  and  _9
REMARK    4  A    between atoms: _9  and  _10
REMARK    5  A    between atoms: _9  and  _12
REMARK    6  A    between atoms: _12  and  _13
REMARK    7  A    between atoms: _15  and  _17
REMARK    8  A    between atoms: _17  and  _18
REMARK    9  A    between atoms: _17  and  _20
REMARK   10  A    between atoms: _20  and  _21
REMARK   11  A    between atoms: _23  and  _25
REMARK   12  A    between atoms: _25  and  _26
REMARK   13  A    between atoms: _29  and  _31
REMARK   14  A    between atoms: _31  and  _32
REMARK   15  A    between atoms: _31  and  _34
REMARK   16  A    between atoms: _34  and  _35
REMARK   17  A    between atoms: _40  and  _41
REMARK   18  A    between atoms: _43  and  _45
REMARK   19  A    between atoms: _45  and  _46
REMARK   20  A    between atoms: _45  and  _48
REMARK   21  A    between atoms: _48  and  _49
REMARK   22  A    between atoms: _49  and  _50
REMARK   23  A    between atoms: _55  and  _57
REMARK   24  A    between atoms: _57  and  _58
REMARK   25  A    between atoms: _57  and  _60
REMARK   26  A    between atoms: _60  and  _61
REMARK   27  A    between atoms: _67  and  _69
REMARK   28  A    between atoms: _69  and  _70
REMARK   29  A    between atoms: _69  and  _72
REMARK   30  A    between atoms: _72  and  _73
REMARK   31  A    between atoms: _83  and  _85
REMARK   32  A    between atoms: _85  and  _86
REMARK   33  A    between atoms: _85  and  _88
REMARK   34  A    between atoms: _88  and  _89
REMARK   35  A    between atoms: _91  and  _93
REMARK   36  A    between atoms: _93  and  _94
REMARK   37  A    between atoms: _93  and  _96
REMARK   38  A    between atoms: _96  and  _97
REMARK   39  A    between atoms: _97  and  _98
REMARK   40  A    between atoms: _98  and  _99
REMARK   41  A    between atoms: _108  and  _110
REMARK   42  A    between atoms: _110  and  _111
REMARK   43  A    between atoms: _110  and  _113
REMARK   44  A    between atoms: _113  and  _114
REMARK   45  A    between atoms: _117  and  _119
REMARK   46  A    between atoms: _119  and  _120
REMARK   47  A    between atoms: _119  and  _122
REMARK   48  A    between atoms: _122  and  _123
REMARK   49  A    between atoms: _128  and  _130
REMARK   50  A    between atoms: _130  and  _131
REMARK   51  A    between atoms: _130  and  _133
REMARK   52  A    between atoms: _133  and  _134
REMARK   53  A    between atoms: _144  and  _146
REMARK   54  A    between atoms: _146  and  _147
REMARK   55  A    between atoms: _146  and  _149
REMARK   56  A    between atoms: _149  and  _150
REMARK   57  A    between atoms: _155  and  _157
REMARK   58  A    between atoms: _157  and  _158
REMARK   59  A    between atoms: _157  and  _160
REMARK   60  A    between atoms: _160  and  _161
REMARK   61  A    between atoms: _161  and  _162
REMARK   62  A    between atoms: _165  and  _167
REMARK   63  A    between atoms: _167  and  _168
REMARK   64  A    between atoms: _167  and  _170
REMARK   65  A    between atoms: _170  and  _171
REMARK   66  A    between atoms: _181  and  _183
REMARK   67  A    between atoms: _183  and  _184
REMARK   68  A    between atoms: _183  and  _186
REMARK   69  A    between atoms: _186  and  _187
REMARK   70  A    between atoms: _189  and  _191
REMARK   71  A    between atoms: _191  and  _192
REMARK   72  A    between atoms: _191  and  _194
REMARK   73  A    between atoms: _194  and  _195
REMARK   74  A    between atoms: _200  and  _201
REMARK   75  A    between atoms: _203  and  _205
REMARK   76  A    between atoms: _205  and  _206
REMARK   77  A    between atoms: _205  and  _208
REMARK   78  A    between atoms: _208  and  _209
REMARK   79  A    between atoms: _211  and  _213
REMARK   80  A    between atoms: _213  and  _214
REMARK   81  A    between atoms: _213  and  _216
REMARK   82  A    between atoms: _216  and  _217
REMARK   83  A    between atoms: _222  and  _223
REMARK   84  A    between atoms: _225  and  _227
REMARK   85  A    between atoms: _227  and  _228
REMARK   86  A    between atoms: _230  and  _232
REMARK   87  A    between atoms: _232  and  _233
REMARK   88  A    between atoms: _235  and  _237
REMARK   89  A    between atoms: _237  and  _238
REMARK   90  A    between atoms: _237  and  _240
REMARK   91  A    between atoms: _240  and  _241
REMARK   92  A    between atoms: _246  and  _247
REMARK   93  A    between atoms: _249  and  _251
REMARK   94  A    between atoms: _251  and  _252
REMARK   95  A    between atoms: _251  and  _254
REMARK   96  A    between atoms: _254  and  _255
REMARK   97  A    between atoms: _258  and  _260
REMARK   98  A    between atoms: _260  and  _261
REMARK   99  A    between atoms: _264  and  _266
REMARK  100  A    between atoms: _266  and  _267
REMARK  101  A    between atoms: _269  and  _271
REMARK  102  A    between atoms: _271  and  _272
REMARK  103  A    between atoms: _271  and  _274
REMARK  104  A    between atoms: _274  and  _275
REMARK  105  A    between atoms: _278  and  _280
REMARK  106  A    between atoms: _280  and  _281
REMARK  107  A    between atoms: _280  and  _283
REMARK  108  A    between atoms: _283  and  _284
REMARK  109  A    between atoms: _287  and  _289
REMARK  110  A    between atoms: _289  and  _290
REMARK  111  A    between atoms: _289  and  _292
REMARK  112  A    between atoms: _292  and  _293
REMARK  113  A    between atoms: _296  and  _298
REMARK  114  A    between atoms: _298  and  _299
REMARK  115  A    between atoms: _298  and  _301
REMARK  116  A    between atoms: _304  and  _306
REMARK  117  A    between atoms: _306  and  _307
REMARK  118  A    between atoms: _306  and  _309
REMARK  119  A    between atoms: _309  and  _310
REMARK  120  A    between atoms: _313  and  _315
REMARK  121  A    between atoms: _315  and  _316
REMARK  122  A    between atoms: _315  and  _318
REMARK  123  A    between atoms: _318  and  _319
REMARK  124  A    between atoms: _324  and  _325
REMARK  125  A    between atoms: _327  and  _329
REMARK  126  A    between atoms: _329  and  _330
REMARK  127  A    between atoms: _329  and  _332
REMARK  128  A    between atoms: _332  and  _333
REMARK  129  A    between atoms: _333  and  _334
REMARK  130  A    between atoms: _336  and  _338
REMARK  131  A    between atoms: _338  and  _339
REMARK  132  A    between atoms: _338  and  _341
REMARK  133  A    between atoms: _341  and  _342
REMARK  134  A    between atoms: _347  and  _349
REMARK  135  A    between atoms: _349  and  _350
REMARK  136  A    between atoms: _349  and  _352
REMARK  137  A    between atoms: _352  and  _353
REMARK  138  A    between atoms: _358  and  _359
REMARK  139  A    between atoms: _361  and  _363
REMARK  140  A    between atoms: _363  and  _364
REMARK  141  A    between atoms: _363  and  _366
REMARK  142  A    between atoms: _366  and  _367
REMARK  143  A    between atoms: _372  and  _373
REMARK  144  A    between atoms: _375  and  _377
REMARK  145  A    between atoms: _377  and  _378
REMARK  146  A    between atoms: _377  and  _380
REMARK  147  A    between atoms: _380  and  _381
REMARK  148  A    between atoms: _384  and  _386
REMARK  149  A    between atoms: _386  and  _387
REMARK  150  A    between atoms: _386  and  _389
REMARK  151  A    between atoms: _389  and  _390
REMARK  152  A    between atoms: _395  and  _397
REMARK  153  A    between atoms: _397  and  _398
REMARK  154  A    between atoms: _397  and  _400
REMARK  155  A    between atoms: _400  and  _401
REMARK  156  A    between atoms: _401  and  _402
REMARK  157  A    between atoms: _407  and  _409
REMARK  158  A    between atoms: _409  and  _410
REMARK  159  A    between atoms: _409  and  _412
REMARK  160  A    between atoms: _412  and  _413
REMARK  161  A    between atoms: _416  and  _418
REMARK  162  A    between atoms: _418  and  _419
REMARK  163  A    between atoms: _421  and  _423
REMARK  164  A    between atoms: _423  and  _424
REMARK  165  A    between atoms: _423  and  _426
REMARK  166  A    between atoms: _430  and  _431
REMARK  167  A    between atoms: _436  and  _438
REMARK  168  A    between atoms: _438  and  _439
REMARK  169  A    between atoms: _442  and  _444
REMARK  170  A    between atoms: _444  and  _445
REMARK  171  A    between atoms: _444  and  _447
REMARK  172  A    between atoms: _447  and  _448
REMARK  173  A    between atoms: _454  and  _456
REMARK  174  A    between atoms: _456  and  _457
REMARK  175  A    between atoms: _456  and  _459
REMARK  176  A    between atoms: _459  and  _460
REMARK  177  A    between atoms: _463  and  _465
REMARK  178  A    between atoms: _465  and  _466
REMARK  179  A    between atoms: _465  and  _468
REMARK  180  A    between atoms: _468  and  _469
REMARK  181  A    between atoms: _469  and  _470
REMARK  182  A    between atoms: _473  and  _475
REMARK  183  A    between atoms: _475  and  _476
REMARK  184  A    between atoms: _475  and  _478
REMARK  185  A    between atoms: _478  and  _479
REMARK  186  A    between atoms: _484  and  _486
REMARK  187  A    between atoms: _486  and  _487
REMARK  188  A    between atoms: _489  and  _491
REMARK  189  A    between atoms: _491  and  _492
REMARK  190  A    between atoms: _491  and  _494
REMARK  191  A    between atoms: _494  and  _495
REMARK  192  A    between atoms: _495  and  _496
REMARK  193  A    between atoms: _498  and  _500
REMARK  194  A    between atoms: _500  and  _501
REMARK  195  A    between atoms: _503  and  _505
REMARK  196  A    between atoms: _505  and  _506
REMARK  197  A    between atoms: _505  and  _508
REMARK  198  A    between atoms: _508  and  _509
REMARK  199  A    between atoms: _519  and  _521
REMARK  200  A    between atoms: _521  and  _522
REMARK  201  A    between atoms: _525  and  _527
REMARK  202  A    between atoms: _527  and  _528
REMARK  203  A    between atoms: _527  and  _530
REMARK  204  A    between atoms: _530  and  _531
REMARK  205  A    between atoms: _534  and  _536
REMARK  206  A    between atoms: _536  and  _537
REMARK  207  A    between atoms: _536  and  _539
REMARK  208  A    between atoms: _539  and  _540
REMARK  209  A    between atoms: _545  and  _547
REMARK  210  A    between atoms: _547  and  _548
REMARK  211  A    between atoms: _547  and  _550
REMARK  212  A    between atoms: _550  and  _551
REMARK  213  A    between atoms: _557  and  _559
REMARK  214  A    between atoms: _559  and  _560
REMARK  215  A    between atoms: _559  and  _562
REMARK  216  A    between atoms: _562  and  _563
REMARK  217  A    between atoms: _563  and  _564
REMARK  218  A    between atoms: _567  and  _569
REMARK  219  A    between atoms: _569  and  _570
REMARK  220  A    between atoms: _569  and  _572
REMARK  221  A    between atoms: _572  and  _573
REMARK  222  A    between atoms: _583  and  _585
REMARK  223  A    between atoms: _585  and  _586
REMARK  224  A    between atoms: _585  and  _588
REMARK  225  A    between atoms: _588  and  _589
REMARK  226  A    between atoms: _592  and  _594
REMARK  227  A    between atoms: _594  and  _595
REMARK  228  A    between atoms: _594  and  _597
REMARK  229  A    between atoms: _597  and  _598
REMARK  230  A    between atoms: _600  and  _602
REMARK  231  A    between atoms: _602  and  _603
REMARK  232  A    between atoms: _605  and  _607
REMARK  233  A    between atoms: _607  and  _608
REMARK  234  A    between atoms: _607  and  _610
REMARK  235  A    between atoms: _610  and  _611
REMARK  236  A    between atoms: _614  and  _616
REMARK  237  A    between atoms: _616  and  _617
REMARK  238  A    between atoms: _616  and  _619
REMARK  239  A    between atoms: _619  and  _620
REMARK  240  A    between atoms: _620  and  _621
REMARK  241  A    between atoms: _626  and  _628
REMARK  242  A    between atoms: _628  and  _629
REMARK  243  A    between atoms: _628  and  _631
REMARK  244  A    between atoms: _631  and  _632
REMARK                            x       y       z     vdW  Elec       q    Type
REMARK                         _______ _______ _______ _____ _____    ______ ____
ROOT
ATOM      1  O   HOH     1      -9.335  42.072  20.000  0.00  0.00    +0.000 OA
ENDROOT
TORSDOF 0
REMARK  Name = ../refined-set-2016/3wq6/3wq6_pocket.pdb
REMARK  244 active torsions:
REMARK  status: ('A' for Active; 'I' for Inactive)
REMARK    1  A    between atoms: _1  and  _3
REMARK    2  A    between atoms: _3  and  _4
REMARK    3  A    between atoms: _7  and  _9
REMARK    4  A    between atoms: _9  and  _10
REMARK    5  A    between atoms: _9  and  _12
REMARK    6  A    between atoms: _12  and  _13
REMARK    7  A    between atoms: _15  and  _17
REMARK    8  A    between atoms: _17  and  _18
REMARK    9  A    between atoms: _17  and  _20
REMARK   10  A    between atoms: _20  and  _21
REMARK   11  A    between atoms: _23  and  _25
REMARK   12  A    between atoms: _25  and  _26
REMARK   13  A    between atoms: _29  and  _31
REMARK   14  A    between atoms: _31  and  _32
REMARK   15  A    between atoms: _31  and  _34
REMARK   16  A    between atoms: _34  and  _35
REMARK   17  A    between atoms: _40  and  _41
REMARK   18  A    between atoms: _43  and  _45
REMARK   19  A    between atoms: _45  and  _46
REMARK   20  A    between atoms: _45  and  _48
REMARK   21  A    between atoms: _48  and  _49
REMARK   22  A    between atoms: _49  and  _50
REMARK   23  A    between atoms: _55  and  _57
REMARK   24  A    between atoms: _57  and  _58
REMARK   25  A    between atoms: _57  and  _60
REMARK   26  A    between atoms: _60  and  _61
REMARK   27  A    between atoms: _67  and  _69
REMARK   28  A    between atoms: _69  and  _70
REMARK   29  A    between atoms: _69  and  _72
REMARK   30  A    between atoms: _72  and  _73
REMARK   31  A    between atoms: _83  and  _85
REMARK   32  A    between atoms: _85  and  _86
REMARK   33  A    between atoms: _85  and  _88
REMARK   34  A    between atoms: _88  and  _89
REMARK   35  A    between atoms: _91  and  _93
REMARK   36  A    between atoms: _93  and  _94
REMARK   37  A    between atoms: _93  and  _96
REMARK   38  A    between atoms: _96  and  _97
REMARK   39  A    between atoms: _97  and  _98
REMARK   40  A    between atoms: _98  and  _99
REMARK   41  A    between atoms: _108  and  _110
REMARK   42  A    between atoms: _110  and  _111
REMARK   43  A    between atoms: _110  and  _113
REMARK   44  A    between atoms: _113  and  _114
REMARK   45  A    between atoms: _117  and  _119
REMARK   46  A    between atoms: _119  and  _120
REMARK   47  A    between atoms: _119  and  _122
REMARK   48  A    between atoms: _122  and  _123
REMARK   49  A    between atoms: _128  and  _130
REMARK   50  A    between atoms: _130  and  _131
REMARK   51  A    between atoms: _130  and  _133
REMARK   52  A    between atoms: _133  and  _134
REMARK   53  A    between atoms: _144  and  _146
REMARK   54  A    between atoms: _146  and  _147
REMARK   55  A    between atoms: _146  and  _149
REMARK   56  A    between atoms: _149  and  _150
REMARK   57  A    between atoms: _155  and  _157
REMARK   58  A    between atoms: _157  and  _158
REMARK   59  A    between atoms: _157  and  _160
REMARK   60  A    between atoms: _160  and  _161
REMARK   61  A    between atoms: _161  and  _162
REMARK   62  A    between atoms: _165  and  _167
REMARK   63  A    between atoms: _167  and  _168
REMARK   64  A    between atoms: _167  and  _170
REMARK   65  A    between atoms: _170  and  _171
REMARK   66  A    between atoms: _181  and  _183
REMARK   67  A    between atoms: _183  and  _184
REMARK   68  A    between atoms: _183  and  _186
REMARK   69  A    between atoms: _186  and  _187
REMARK   70  A    between atoms: _189  and  _191
REMARK   71  A    between atoms: _191  and  _192
REMARK   72  A    between atoms: _191  and  _194
REMARK   73  A    between atoms: _194  and  _195
REMARK   74  A    between atoms: _200  and  _201
REMARK   75  A    between atoms: _203  and  _205
REMARK   76  A    between atoms: _205  and  _206
REMARK   77  A    between atoms: _205  and  _208
REMARK   78  A    between atoms: _208  and  _209
REMARK   79  A    between atoms: _211  and  _213
REMARK   80  A    between atoms: _213  and  _214
REMARK   81  A    between atoms: _213  and  _216
REMARK   82  A    between atoms: _216  and  _217
REMARK   83  A    between atoms: _222  and  _223
REMARK   84  A    between atoms: _225  and  _227
REMARK   85  A    between atoms: _227  and  _228
REMARK   86  A    between atoms: _230  and  _232
REMARK   87  A    between atoms: _232  and  _233
REMARK   88  A    between atoms: _235  and  _237
REMARK   89  A    between atoms: _237  and  _238
REMARK   90  A    between atoms: _237  and  _240
REMARK   91  A    between atoms: _240  and  _241
REMARK   92  A    between atoms: _246  and  _247
REMARK   93  A    between atoms: _249  and  _251
REMARK   94  A    between atoms: _251  and  _252
REMARK   95  A    between atoms: _251  and  _254
REMARK   96  A    between atoms: _254  and  _255
REMARK   97  A    between atoms: _258  and  _260
REMARK   98  A    between atoms: _260  and  _261
REMARK   99  A    between atoms: _264  and  _266
REMARK  100  A    between atoms: _266  and  _267
REMARK  101  A    between atoms: _269  and  _271
REMARK  102  A    between atoms: _271  and  _272
REMARK  103  A    between atoms: _271  and  _274
REMARK  104  A    between atoms: _274  and  _275
REMARK  105  A    between atoms: _278  and  _280
REMARK  106  A    between atoms: _280  and  _281
REMARK  107  A    between atoms: _280  and  _283
REMARK  108  A    between atoms: _283  and  _284
REMARK  109  A    between atoms: _287  and  _289
REMARK  110  A    between atoms: _289  and  _290
REMARK  111  A    between atoms: _289  and  _292
REMARK  112  A    between atoms: _292  and  _293
REMARK  113  A    between atoms: _296  and  _298
REMARK  114  A    between atoms: _298  and  _299
REMARK  115  A    between atoms: _298  and  _301
REMARK  116  A    between atoms: _304  and  _306
REMARK  117  A    between atoms: _306  and  _307
REMARK  118  A    between atoms: _306  and  _309
REMARK  119  A    between atoms: _309  and  _310
REMARK  120  A    between atoms: _313  and  _315
REMARK  121  A    between atoms: _315  and  _316
REMARK  122  A    between atoms: _315  and  _318
REMARK  123  A    between atoms: _318  and  _319
REMARK  124  A    between atoms: _324  and  _325
REMARK  125  A    between atoms: _327  and  _329
REMARK  126  A    between atoms: _329  and  _330
REMARK  127  A    between atoms: _329  and  _332
REMARK  128  A    between atoms: _332  and  _333
REMARK  129  A    between atoms: _333  and  _334
REMARK  130  A    between atoms: _336  and  _338
REMARK  131  A    between atoms: _338  and  _339
REMARK  132  A    between atoms: _338  and  _341
REMARK  133  A    between atoms: _341  and  _342
REMARK  134  A    between atoms: _347  and  _349
REMARK  135  A    between atoms: _349  and  _350
REMARK  136  A    between atoms: _349  and  _352
REMARK  137  A    between atoms: _352  and  _353
REMARK  138  A    between atoms: _358  and  _359
REMARK  139  A    between atoms: _361  and  _363
REMARK  140  A    between atoms: _363  and  _364
REMARK  141  A    between atoms: _363  and  _366
REMARK  142  A    between atoms: _366  and  _367
REMARK  143  A    between atoms: _372  and  _373
REMARK  144  A    between atoms: _375  and  _377
REMARK  145  A    between atoms: _377  and  _378
REMARK  146  A    between atoms: _377  and  _380
REMARK  147  A    between atoms: _380  and  _381
REMARK  148  A    between atoms: _384  and  _386
REMARK  149  A    between atoms: _386  and  _387
REMARK  150  A    between atoms: _386  and  _389
REMARK  151  A    between atoms: _389  and  _390
REMARK  152  A    between atoms: _395  and  _397
REMARK  153  A    between atoms: _397  and  _398
REMARK  154  A    between atoms: _397  and  _400
REMARK  155  A    between atoms: _400  and  _401
REMARK  156  A    between atoms: _401  and  _402
REMARK  157  A    between atoms: _407  and  _409
REMARK  158  A    between atoms: _409  and  _410
REMARK  159  A    between atoms: _409  and  _412
REMARK  160  A    between atoms: _412  and  _413
REMARK  161  A    between atoms: _416  and  _418
REMARK  162  A    between atoms: _418  and  _419
REMARK  163  A    between atoms: _421  and  _423
REMARK  164  A    between atoms: _423  and  _424
REMARK  165  A    between atoms: _423  and  _426
REMARK  166  A    between atoms: _430  and  _431
REMARK  167  A    between atoms: _436  and  _438
REMARK  168  A    between atoms: _438  and  _439
REMARK  169  A    between atoms: _442  and  _444
REMARK  170  A    between atoms: _444  and  _445
REMARK  171  A    between atoms: _444  and  _447
REMARK  172  A    between atoms: _447  and  _448
REMARK  173  A    between atoms: _454  and  _456
REMARK  174  A    between atoms: _456  and  _457
REMARK  175  A    between atoms: _456  and  _459
REMARK  176  A    between atoms: _459  and  _460
REMARK  177  A    between atoms: _463  and  _465
REMARK  178  A    between atoms: _465  and  _466
REMARK  179  A    between atoms: _465  and  _468
REMARK  180  A    between atoms: _468  and  _469
REMARK  181  A    between atoms: _469  and  _470
REMARK  182  A    between atoms: _473  and  _475
REMARK  183  A    between atoms: _475  and  _476
REMARK  184  A    between atoms: _475  and  _478
REMARK  185  A    between atoms: _478  and  _479
REMARK  186  A    between atoms: _484  and  _486
REMARK  187  A    between atoms: _486  and  _487
REMARK  188  A    between atoms: _489  and  _491
REMARK  189  A    between atoms: _491  and  _492
REMARK  190  A    between atoms: _491  and  _494
REMARK  191  A    between atoms: _494  and  _495
REMARK  192  A    between atoms: _495  and  _496
REMARK  193  A    between atoms: _498  and  _500
REMARK  194  A    between atoms: _500  and  _501
REMARK  195  A    between atoms: _503  and  _505
REMARK  196  A    between atoms: _505  and  _506
REMARK  197  A    between atoms: _505  and  _508
REMARK  198  A    between atoms: _508  and  _509
REMARK  199  A    between atoms: _519  and  _521
REMARK  200  A    between atoms: _521  and  _522
REMARK  201  A    between atoms: _525  and  _527
REMARK  202  A    between atoms: _527  and  _528
REMARK  203  A    between atoms: _527  and  _530
REMARK  204  A    between atoms: _530  and  _531
REMARK  205  A    between atoms: _534  and  _536
REMARK  206  A    between atoms: _536  and  _537
REMARK  207  A    between atoms: _536  and  _539
REMARK  208  A    between atoms: _539  and  _540
REMARK  209  A    between atoms: _545  and  _547
REMARK  210  A    between atoms: _547  and  _548
REMARK  211  A    between atoms: _547  and  _550
REMARK  212  A    between atoms: _550  and  _551
REMARK  213  A    between atoms: _557  and  _559
REMARK  214  A    between atoms: _559  and  _560
REMARK  215  A    between atoms: _559  and  _562
REMARK  216  A    between atoms: _562  and  _563
REMARK  217  A    between atoms: _563  and  _564
REMARK  218  A    between atoms: _567  and  _569
REMARK  219  A    between atoms: _569  and  _570
REMARK  220  A    between atoms: _569  and  _572
REMARK  221  A    between atoms: _572  and  _573
REMARK  222  A    between atoms: _583  and  _585
REMARK  223  A    between atoms: _585  and  _586
REMARK  224  A    between atoms: _585  and  _588
REMARK  225  A    between atoms: _588  and  _589
REMARK  226  A    between atoms: _592  and  _594
REMARK  227  A    between atoms: _594  and  _595
REMARK  228  A    between atoms: _594  and  _597
REMARK  229  A    between atoms: _597  and  _598
REMARK  230  A    between atoms: _600  and  _602
REMARK  231  A    between atoms: _602  and  _603
REMARK  232  A    between atoms: _605  and  _607
REMARK  233  A    between atoms: _607  and  _608
REMARK  234  A    between atoms: _607  and  _610
REMARK  235  A    between atoms: _610  and  _611
REMARK  236  A    between atoms: _614  and  _616
REMARK  237  A    between atoms: _616  and  _617
REMARK  238  A    between atoms: _616  and  _619
REMARK  239  A    between atoms: _619  and  _620
REMARK  240  A    between atoms: _620  and  _621
REMARK  241  A    between atoms: _626  and  _628
REMARK  242  A    between atoms: _628  and  _629
REMARK  243  A    between atoms: _628  and  _631
REMARK  244  A    between atoms: _631  and  _632
REMARK                            x       y       z     vdW  Elec       q    Type
REMARK                         _______ _______ _______ _____ _____    ______ ____
ROOT
ATOM      1  O   HOH     1      -7.938  27.325  14.239  0.00  0.00    +0.000 OA
ENDROOT
TORSDOF 0
REMARK  Name = ../refined-set-2016/3wq6/3wq6_pocket.pdb
REMARK  244 active torsions:
REMARK  status: ('A' for Active; 'I' for Inactive)
REMARK    1  A    between atoms: _1  and  _3
REMARK    2  A    between atoms: _3  and  _4
REMARK    3  A    between atoms: _7  and  _9
REMARK    4  A    between atoms: _9  and  _10
REMARK    5  A    between atoms: _9  and  _12
REMARK    6  A    between atoms: _12  and  _13
REMARK    7  A    between atoms: _15  and  _17
REMARK    8  A    between atoms: _17  and  _18
REMARK    9  A    between atoms: _17  and  _20
REMARK   10  A    between atoms: _20  and  _21
REMARK   11  A    between atoms: _23  and  _25
REMARK   12  A    between atoms: _25  and  _26
REMARK   13  A    between atoms: _29  and  _31
REMARK   14  A    between atoms: _31  and  _32
REMARK   15  A    between atoms: _31  and  _34
REMARK   16  A    between atoms: _34  and  _35
REMARK   17  A    between atoms: _40  and  _41
REMARK   18  A    between atoms: _43  and  _45
REMARK   19  A    between atoms: _45  and  _46
REMARK   20  A    between atoms: _45  and  _48
REMARK   21  A    between atoms: _48  and  _49
REMARK   22  A    between atoms: _49  and  _50
REMARK   23  A    between atoms: _55  and  _57
REMARK   24  A    between atoms: _57  and  _58
REMARK   25  A    between atoms: _57  and  _60
REMARK   26  A    between atoms: _60  and  _61
REMARK   27  A    between atoms: _67  and  _69
REMARK   28  A    between atoms: _69  and  _70
REMARK   29  A    between atoms: _69  and  _72
REMARK   30  A    between atoms: _72  and  _73
REMARK   31  A    between atoms: _83  and  _85
REMARK   32  A    between atoms: _85  and  _86
REMARK   33  A    between atoms: _85  and  _88
REMARK   34  A    between atoms: _88  and  _89
REMARK   35  A    between atoms: _91  and  _93
REMARK   36  A    between atoms: _93  and  _94
REMARK   37  A    between atoms: _93  and  _96
REMARK   38  A    between atoms: _96  and  _97
REMARK   39  A    between atoms: _97  and  _98
REMARK   40  A    between atoms: _98  and  _99
REMARK   41  A    between atoms: _108  and  _110
REMARK   42  A    between atoms: _110  and  _111
REMARK   43  A    between atoms: _110  and  _113
REMARK   44  A    between atoms: _113  and  _114
REMARK   45  A    between atoms: _117  and  _119
REMARK   46  A    between atoms: _119  and  _120
REMARK   47  A    between atoms: _119  and  _122
REMARK   48  A    between atoms: _122  and  _123
REMARK   49  A    between atoms: _128  and  _130
REMARK   50  A    between atoms: _130  and  _131
REMARK   51  A    between atoms: _130  and  _133
REMARK   52  A    between atoms: _133  and  _134
REMARK   53  A    between atoms: _144  and  _146
REMARK   54  A    between atoms: _146  and  _147
REMARK   55  A    between atoms: _146  and  _149
REMARK   56  A    between atoms: _149  and  _150
REMARK   57  A    between atoms: _155  and  _157
REMARK   58  A    between atoms: _157  and  _158
REMARK   59  A    between atoms: _157  and  _160
REMARK   60  A    between atoms: _160  and  _161
REMARK   61  A    between atoms: _161  and  _162
REMARK   62  A    between atoms: _165  and  _167
REMARK   63  A    between atoms: _167  and  _168
REMARK   64  A    between atoms: _167  and  _170
REMARK   65  A    between atoms: _170  and  _171
REMARK   66  A    between atoms: _181  and  _183
REMARK   67  A    between atoms: _183  and  _184
REMARK   68  A    between atoms: _183  and  _186
REMARK   69  A    between atoms: _186  and  _187
REMARK   70  A    between atoms: _189  and  _191
REMARK   71  A    between atoms: _191  and  _192
REMARK   72  A    between atoms: _191  and  _194
REMARK   73  A    between atoms: _194  and  _195
REMARK   74  A    between atoms: _200  and  _201
REMARK   75  A    between atoms: _203  and  _205
REMARK   76  A    between atoms: _205  and  _206
REMARK   77  A    between atoms: _205  and  _208
REMARK   78  A    between atoms: _208  and  _209
REMARK   79  A    between atoms: _211  and  _213
REMARK   80  A    between atoms: _213  and  _214
REMARK   81  A    between atoms: _213  and  _216
REMARK   82  A    between atoms: _216  and  _217
REMARK   83  A    between atoms: _222  and  _223
REMARK   84  A    between atoms: _225  and  _227
REMARK   85  A    between atoms: _227  and  _228
REMARK   86  A    between atoms: _230  and  _232
REMARK   87  A    between atoms: _232  and  _233
REMARK   88  A    between atoms: _235  and  _237
REMARK   89  A    between atoms: _237  and  _238
REMARK   90  A    between atoms: _237  and  _240
REMARK   91  A    between atoms: _240  and  _241
REMARK   92  A    between atoms: _246  and  _247
REMARK   93  A    between atoms: _249  and  _251
REMARK   94  A    between atoms: _251  and  _252
REMARK   95  A    between atoms: _251  and  _254
REMARK   96  A    between atoms: _254  and  _255
REMARK   97  A    between atoms: _258  and  _260
REMARK   98  A    between atoms: _260  and  _261
REMARK   99  A    between atoms: _264  and  _266
REMARK  100  A    between atoms: _266  and  _267
REMARK  101  A    between atoms: _269  and  _271
REMARK  102  A    between atoms: _271  and  _272
REMARK  103  A    between atoms: _271  and  _274
REMARK  104  A    between atoms: _274  and  _275
REMARK  105  A    between atoms: _278  and  _280
REMARK  106  A    between atoms: _280  and  _281
REMARK  107  A    between atoms: _280  and  _283
REMARK  108  A    between atoms: _283  and  _284
REMARK  109  A    between atoms: _287  and  _289
REMARK  110  A    between atoms: _289  and  _290
REMARK  111  A    between atoms: _289  and  _292
REMARK  112  A    between atoms: _292  and  _293
REMARK  113  A    between atoms: _296  and  _298
REMARK  114  A    between atoms: _298  and  _299
REMARK  115  A    between atoms: _298  and  _301
REMARK  116  A    between atoms: _304  and  _306
REMARK  117  A    between atoms: _306  and  _307
REMARK  118  A    between atoms: _306  and  _309
REMARK  119  A    between atoms: _309  and  _310
REMARK  120  A    between atoms: _313  and  _315
REMARK  121  A    between atoms: _315  and  _316
REMARK  122  A    between atoms: _315  and  _318
REMARK  123  A    between atoms: _318  and  _319
REMARK  124  A    between atoms: _324  and  _325
REMARK  125  A    between atoms: _327  and  _329
REMARK  126  A    between atoms: _329  and  _330
REMARK  127  A    between atoms: _329  and  _332
REMARK  128  A    between atoms: _332  and  _333
REMARK  129  A    between atoms: _333  and  _334
REMARK  130  A    between atoms: _336  and  _338
REMARK  131  A    between atoms: _338  and  _339
REMARK  132  A    between atoms: _338  and  _341
REMARK  133  A    between atoms: _341  and  _342
REMARK  134  A    between atoms: _347  and  _349
REMARK  135  A    between atoms: _349  and  _350
REMARK  136  A    between atoms: _349  and  _352
REMARK  137  A    between atoms: _352  and  _353
REMARK  138  A    between atoms: _358  and  _359
REMARK  139  A    between atoms: _361  and  _363
REMARK  140  A    between atoms: _363  and  _364
REMARK  141  A    between atoms: _363  and  _366
REMARK  142  A    between atoms: _366  and  _367
REMARK  143  A    between atoms: _372  and  _373
REMARK  144  A    between atoms: _375  and  _377
REMARK  145  A    between atoms: _377  and  _378
REMARK  146  A    between atoms: _377  and  _380
REMARK  147  A    between atoms: _380  and  _381
REMARK  148  A    between atoms: _384  and  _386
REMARK  149  A    between atoms: _386  and  _387
REMARK  150  A    between atoms: _386  and  _389
REMARK  151  A    between atoms: _389  and  _390
REMARK  152  A    between atoms: _395  and  _397
REMARK  153  A    between atoms: _397  and  _398
REMARK  154  A    between atoms: _397  and  _400
REMARK  155  A    between atoms: _400  and  _401
REMARK  156  A    between atoms: _401  and  _402
REMARK  157  A    between atoms: _407  and  _409
REMARK  158  A    between atoms: _409  and  _410
REMARK  159  A    between atoms: _409  and  _412
REMARK  160  A    between atoms: _412  and  _413
REMARK  161  A    between atoms: _416  and  _418
REMARK  162  A    between atoms: _418  and  _419
REMARK  163  A    between atoms: _421  and  _423
REMARK  164  A    between atoms: _423  and  _424
REMARK  165  A    between atoms: _423  and  _426
REMARK  166  A    between atoms: _430  and  _431
REMARK  167  A    between atoms: _436  and  _438
REMARK  168  A    between atoms: _438  and  _439
REMARK  169  A    between atoms: _442  and  _444
REMARK  170  A    between atoms: _444  and  _445
REMARK  171  A    between atoms: _444  and  _447
REMARK  172  A    between atoms: _447  and  _448
REMARK  173  A    between atoms: _454  and  _456
REMARK  174  A    between atoms: _456  and  _457
REMARK  175  A    between atoms: _456  and  _459
REMARK  176  A    between atoms: _459  and  _460
REMARK  177  A    between atoms: _463  and  _465
REMARK  178  A    between atoms: _465  and  _466
REMARK  179  A    between atoms: _465  and  _468
REMARK  180  A    between atoms: _468  and  _469
REMARK  181  A    between atoms: _469  and  _470
REMARK  182  A    between atoms: _473  and  _475
REMARK  183  A    between atoms: _475  and  _476
REMARK  184  A    between atoms: _475  and  _478
REMARK  185  A    between atoms: _478  and  _479
REMARK  186  A    between atoms: _484  and  _486
REMARK  187  A    between atoms: _486  and  _487
REMARK  188  A    between atoms: _489  and  _491
REMARK  189  A    between atoms: _491  and  _492
REMARK  190  A    between atoms: _491  and  _494
REMARK  191  A    between atoms: _494  and  _495
REMARK  192  A    between atoms: _495  and  _496
REMARK  193  A    between atoms: _498  and  _500
REMARK  194  A    between atoms: _500  and  _501
REMARK  195  A    between atoms: _503  and  _505
REMARK  196  A    between atoms: _505  and  _506
REMARK  197  A    between atoms: _505  and  _508
REMARK  198  A    between atoms: _508  and  _509
REMARK  199  A    between atoms: _519  and  _521
REMARK  200  A    between atoms: _521  and  _522
REMARK  201  A    between atoms: _525  and  _527
REMARK  202  A    between atoms: _527  and  _528
REMARK  203  A    between atoms: _527  and  _530
REMARK  204  A    between atoms: _530  and  _531
REMARK  205  A    between atoms: _534  and  _536
REMARK  206  A    between atoms: _536  and  _537
REMARK  207  A    between atoms: _536  and  _539
REMARK  208  A    between atoms: _539  and  _540
REMARK  209  A    between atoms: _545  and  _547
REMARK  210  A    between atoms: _547  and  _548
REMARK  211  A    between atoms: _547  and  _550
REMARK  212  A    between atoms: _550  and  _551
REMARK  213  A    between atoms: _557  and  _559
REMARK  214  A    between atoms: _559  and  _560
REMARK  215  A    between atoms: _559  and  _562
REMARK  216  A    between atoms: _562  and  _563
REMARK  217  A    between atoms: _563  and  _564
REMARK  218  A    between atoms: _567  and  _569
REMARK  219  A    between atoms: _569  and  _570
REMARK  220  A    between atoms: _569  and  _572
REMARK  221  A    between atoms: _572  and  _573
REMARK  222  A    between atoms: _583  and  _585
REMARK  223  A    between atoms: _585  and  _586
REMARK  224  A    between atoms: _585  and  _588
REMARK  225  A    between atoms: _588  and  _589
REMARK  226  A    between atoms: _592  and  _594
REMARK  227  A    between atoms: _594  and  _595
REMARK  228  A    between atoms: _594  and  _597
REMARK  229  A    between atoms: _597  and  _598
REMARK  230  A    between atoms: _600  and  _602
REMARK  231  A    between atoms: _602  and  _603
REMARK  232  A    between atoms: _605  and  _607
REMARK  233  A    between atoms: _607  and  _608
REMARK  234  A    between atoms: _607  and  _610
REMARK  235  A    between atoms: _610  and  _611
REMARK  236  A    between atoms: _614  and  _616
REMARK  237  A    between atoms: _616  and  _617
REMARK  238  A    between atoms: _616  and  _619
REMARK  239  A    between atoms: _619  and  _620
REMARK  240  A    between atoms: _620  and  _621
REMARK  241  A    between atoms: _626  and  _628
REMARK  242  A    between atoms: _628  and  _629
REMARK  243  A    between atoms: _628  and  _631
REMARK  244  A    between atoms: _631  and  _632
REMARK                            x       y       z     vdW  Elec       q    Type
REMARK                         _______ _______ _______ _____ _____    ______ ____
ROOT
ATOM      1  O   HOH     1      -3.901  37.239   9.355  0.00  0.00    +0.000 OA
ENDROOT
TORSDOF 0
REMARK  Name = ../refined-set-2016/3wq6/3wq6_pocket.pdb
REMARK  244 active torsions:
REMARK  status: ('A' for Active; 'I' for Inactive)
REMARK    1  A    between atoms: _1  and  _3
REMARK    2  A    between atoms: _3  and  _4
REMARK    3  A    between atoms: _7  and  _9
REMARK    4  A    between atoms: _9  and  _10
REMARK    5  A    between atoms: _9  and  _12
REMARK    6  A    between atoms: _12  and  _13
REMARK    7  A    between atoms: _15  and  _17
REMARK    8  A    between atoms: _17  and  _18
REMARK    9  A    between atoms: _17  and  _20
REMARK   10  A    between atoms: _20  and  _21
REMARK   11  A    between atoms: _23  and  _25
REMARK   12  A    between atoms: _25  and  _26
REMARK   13  A    between atoms: _29  and  _31
REMARK   14  A    between atoms: _31  and  _32
REMARK   15  A    between atoms: _31  and  _34
REMARK   16  A    between atoms: _34  and  _35
REMARK   17  A    between atoms: _40  and  _41
REMARK   18  A    between atoms: _43  and  _45
REMARK   19  A    between atoms: _45  and  _46
REMARK   20  A    between atoms: _45  and  _48
REMARK   21  A    between atoms: _48  and  _49
REMARK   22  A    between atoms: _49  and  _50
REMARK   23  A    between atoms: _55  and  _57
REMARK   24  A    between atoms: _57  and  _58
REMARK   25  A    between atoms: _57  and  _60
REMARK   26  A    between atoms: _60  and  _61
REMARK   27  A    between atoms: _67  and  _69
REMARK   28  A    between atoms: _69  and  _70
REMARK   29  A    between atoms: _69  and  _72
REMARK   30  A    between atoms: _72  and  _73
REMARK   31  A    between atoms: _83  and  _85
REMARK   32  A    between atoms: _85  and  _86
REMARK   33  A    between atoms: _85  and  _88
REMARK   34  A    between atoms: _88  and  _89
REMARK   35  A    between atoms: _91  and  _93
REMARK   36  A    between atoms: _93  and  _94
REMARK   37  A    between atoms: _93  and  _96
REMARK   38  A    between atoms: _96  and  _97
REMARK   39  A    between atoms: _97  and  _98
REMARK   40  A    between atoms: _98  and  _99
REMARK   41  A    between atoms: _108  and  _110
REMARK   42  A    between atoms: _110  and  _111
REMARK   43  A    between atoms: _110  and  _113
REMARK   44  A    between atoms: _113  and  _114
REMARK   45  A    between atoms: _117  and  _119
REMARK   46  A    between atoms: _119  and  _120
REMARK   47  A    between atoms: _119  and  _122
REMARK   48  A    between atoms: _122  and  _123
REMARK   49  A    between atoms: _128  and  _130
REMARK   50  A    between atoms: _130  and  _131
REMARK   51  A    between atoms: _130  and  _133
REMARK   52  A    between atoms: _133  and  _134
REMARK   53  A    between atoms: _144  and  _146
REMARK   54  A    between atoms: _146  and  _147
REMARK   55  A    between atoms: _146  and  _149
REMARK   56  A    between atoms: _149  and  _150
REMARK   57  A    between atoms: _155  and  _157
REMARK   58  A    between atoms: _157  and  _158
REMARK   59  A    between atoms: _157  and  _160
REMARK   60  A    between atoms: _160  and  _161
REMARK   61  A    between atoms: _161  and  _162
REMARK   62  A    between atoms: _165  and  _167
REMARK   63  A    between atoms: _167  and  _168
REMARK   64  A    between atoms: _167  and  _170
REMARK   65  A    between atoms: _170  and  _171
REMARK   66  A    between atoms: _181  and  _183
REMARK   67  A    between atoms: _183  and  _184
REMARK   68  A    between atoms: _183  and  _186
REMARK   69  A    between atoms: _186  and  _187
REMARK   70  A    between atoms: _189  and  _191
REMARK   71  A    between atoms: _191  and  _192
REMARK   72  A    between atoms: _191  and  _194
REMARK   73  A    between atoms: _194  and  _195
REMARK   74  A    between atoms: _200  and  _201
REMARK   75  A    between atoms: _203  and  _205
REMARK   76  A    between atoms: _205  and  _206
REMARK   77  A    between atoms: _205  and  _208
REMARK   78  A    between atoms: _208  and  _209
REMARK   79  A    between atoms: _211  and  _213
REMARK   80  A    between atoms: _213  and  _214
REMARK   81  A    between atoms: _213  and  _216
REMARK   82  A    between atoms: _216  and  _217
REMARK   83  A    between atoms: _222  and  _223
REMARK   84  A    between atoms: _225  and  _227
REMARK   85  A    between atoms: _227  and  _228
REMARK   86  A    between atoms: _230  and  _232
REMARK   87  A    between atoms: _232  and  _233
REMARK   88  A    between atoms: _235  and  _237
REMARK   89  A    between atoms: _237  and  _238
REMARK   90  A    between atoms: _237  and  _240
REMARK   91  A    between atoms: _240  and  _241
REMARK   92  A    between atoms: _246  and  _247
REMARK   93  A    between atoms: _249  and  _251
REMARK   94  A    between atoms: _251  and  _252
REMARK   95  A    between atoms: _251  and  _254
REMARK   96  A    between atoms: _254  and  _255
REMARK   97  A    between atoms: _258  and  _260
REMARK   98  A    between atoms: _260  and  _261
REMARK   99  A    between atoms: _264  and  _266
REMARK  100  A    between atoms: _266  and  _267
REMARK  101  A    between atoms: _269  and  _271
REMARK  102  A    between atoms: _271  and  _272
REMARK  103  A    between atoms: _271  and  _274
REMARK  104  A    between atoms: _274  and  _275
REMARK  105  A    between atoms: _278  and  _280
REMARK  106  A    between atoms: _280  and  _281
REMARK  107  A    between atoms: _280  and  _283
REMARK  108  A    between atoms: _283  and  _284
REMARK  109  A    between atoms: _287  and  _289
REMARK  110  A    between atoms: _289  and  _290
REMARK  111  A    between atoms: _289  and  _292
REMARK  112  A    between atoms: _292  and  _293
REMARK  113  A    between atoms: _296  and  _298
REMARK  114  A    between atoms: _298  and  _299
REMARK  115  A    between atoms: _298  and  _301
REMARK  116  A    between atoms: _304  and  _306
REMARK  117  A    between atoms: _306  and  _307
REMARK  118  A    between atoms: _306  and  _309
REMARK  119  A    between atoms: _309  and  _310
REMARK  120  A    between atoms: _313  and  _315
REMARK  121  A    between atoms: _315  and  _316
REMARK  122  A    between atoms: _315  and  _318
REMARK  123  A    between atoms: _318  and  _319
REMARK  124  A    between atoms: _324  and  _325
REMARK  125  A    between atoms: _327  and  _329
REMARK  126  A    between atoms: _329  and  _330
REMARK  127  A    between atoms: _329  and  _332
REMARK  128  A    between atoms: _332  and  _333
REMARK  129  A    between atoms: _333  and  _334
REMARK  130  A    between atoms: _336  and  _338
REMARK  131  A    between atoms: _338  and  _339
REMARK  132  A    between atoms: _338  and  _341
REMARK  133  A    between atoms: _341  and  _342
REMARK  134  A    between atoms: _347  and  _349
REMARK  135  A    between atoms: _349  and  _350
REMARK  136  A    between atoms: _349  and  _352
REMARK  137  A    between atoms: _352  and  _353
REMARK  138  A    between atoms: _358  and  _359
REMARK  139  A    between atoms: _361  and  _363
REMARK  140  A    between atoms: _363  and  _364
REMARK  141  A    between atoms: _363  and  _366
REMARK  142  A    between atoms: _366  and  _367
REMARK  143  A    between atoms: _372  and  _373
REMARK  144  A    between atoms: _375  and  _377
REMARK  145  A    between atoms: _377  and  _378
REMARK  146  A    between atoms: _377  and  _380
REMARK  147  A    between atoms: _380  and  _381
REMARK  148  A    between atoms: _384  and  _386
REMARK  149  A    between atoms: _386  and  _387
REMARK  150  A    between atoms: _386  and  _389
REMARK  151  A    between atoms: _389  and  _390
REMARK  152  A    between atoms: _395  and  _397
REMARK  153  A    between atoms: _397  and  _398
REMARK  154  A    between atoms: _397  and  _400
REMARK  155  A    between atoms: _400  and  _401
REMARK  156  A    between atoms: _401  and  _402
REMARK  157  A    between atoms: _407  and  _409
REMARK  158  A    between atoms: _409  and  _410
REMARK  159  A    between atoms: _409  and  _412
REMARK  160  A    between atoms: _412  and  _413
REMARK  161  A    between atoms: _416  and  _418
REMARK  162  A    between atoms: _418  and  _419
REMARK  163  A    between atoms: _421  and  _423
REMARK  164  A    between atoms: _423  and  _424
REMARK  165  A    between atoms: _423  and  _426
REMARK  166  A    between atoms: _430  and  _431
REMARK  167  A    between atoms: _436  and  _438
REMARK  168  A    between atoms: _438  and  _439
REMARK  169  A    between atoms: _442  and  _444
REMARK  170  A    between atoms: _444  and  _445
REMARK  171  A    between atoms: _444  and  _447
REMARK  172  A    between atoms: _447  and  _448
REMARK  173  A    between atoms: _454  and  _456
REMARK  174  A    between atoms: _456  and  _457
REMARK  175  A    between atoms: _456  and  _459
REMARK  176  A    between atoms: _459  and  _460
REMARK  177  A    between atoms: _463  and  _465
REMARK  178  A    between atoms: _465  and  _466
REMARK  179  A    between atoms: _465  and  _468
REMARK  180  A    between atoms: _468  and  _469
REMARK  181  A    between atoms: _469  and  _470
REMARK  182  A    between atoms: _473  and  _475
REMARK  183  A    between atoms: _475  and  _476
REMARK  184  A    between atoms: _475  and  _478
REMARK  185  A    between atoms: _478  and  _479
REMARK  186  A    between atoms: _484  and  _486
REMARK  187  A    between atoms: _486  and  _487
REMARK  188  A    between atoms: _489  and  _491
REMARK  189  A    between atoms: _491  and  _492
REMARK  190  A    between atoms: _491  and  _494
REMARK  191  A    between atoms: _494  and  _495
REMARK  192  A    between atoms: _495  and  _496
REMARK  193  A    between atoms: _498  and  _500
REMARK  194  A    between atoms: _500  and  _501
REMARK  195  A    between atoms: _503  and  _505
REMARK  196  A    between atoms: _505  and  _506
REMARK  197  A    between atoms: _505  and  _508
REMARK  198  A    between atoms: _508  and  _509
REMARK  199  A    between atoms: _519  and  _521
REMARK  200  A    between atoms: _521  and  _522
REMARK  201  A    between atoms: _525  and  _527
REMARK  202  A    between atoms: _527  and  _528
REMARK  203  A    between atoms: _527  and  _530
REMARK  204  A    between atoms: _530  and  _531
REMARK  205  A    between atoms: _534  and  _536
REMARK  206  A    between atoms: _536  and  _537
REMARK  207  A    between atoms: _536  and  _539
REMARK  208  A    between atoms: _539  and  _540
REMARK  209  A    between atoms: _545  and  _547
REMARK  210  A    between atoms: _547  and  _548
REMARK  211  A    between atoms: _547  and  _550
REMARK  212  A    between atoms: _550  and  _551
REMARK  213  A    between atoms: _557  and  _559
REMARK  214  A    between atoms: _559  and  _560
REMARK  215  A    between atoms: _559  and  _562
REMARK  216  A    between atoms: _562  and  _563
REMARK  217  A    between atoms: _563  and  _564
REMARK  218  A    between atoms: _567  and  _569
REMARK  219  A    between atoms: _569  and  _570
REMARK  220  A    between atoms: _569  and  _572
REMARK  221  A    between atoms: _572  and  _573
REMARK  222  A    between atoms: _583  and  _585
REMARK  223  A    between atoms: _585  and  _586
REMARK  224  A    between atoms: _585  and  _588
REMARK  225  A    between atoms: _588  and  _589
REMARK  226  A    between atoms: _592  and  _594
REMARK  227  A    between atoms: _594  and  _595
REMARK  228  A    between atoms: _594  and  _597
REMARK  229  A    between atoms: _597  and  _598
REMARK  230  A    between atoms: _600  and  _602
REMARK  231  A    between atoms: _602  and  _603
REMARK  232  A    between atoms: _605  and  _607
REMARK  233  A    between atoms: _607  and  _608
REMARK  234  A    between atoms: _607  and  _610
REMARK  235  A    between atoms: _610  and  _611
REMARK  236  A    between atoms: _614  and  _616
REMARK  237  A    between atoms: _616  and  _617
REMARK  238  A    between atoms: _616  and  _619
REMARK  239  A    between atoms: _619  and  _620
REMARK  240  A    between atoms: _620  and  _621
REMARK  241  A    between atoms: _626  and  _628
REMARK  242  A    between atoms: _628  and  _629
REMARK  243  A    between atoms: _628  and  _631
REMARK  244  A    between atoms: _631  and  _632
REMARK                            x       y       z     vdW  Elec       q    Type
REMARK                         _______ _______ _______ _____ _____    ______ ____
ROOT
ATOM      1  O   HOH     1      -0.260  33.594   8.860  0.00  0.00    +0.000 OA
ENDROOT
TORSDOF 0
REMARK  Name = ../refined-set-2016/3wq6/3wq6_pocket.pdb
REMARK  244 active torsions:
REMARK  status: ('A' for Active; 'I' for Inactive)
REMARK    1  A    between atoms: _1  and  _3
REMARK    2  A    between atoms: _3  and  _4
REMARK    3  A    between atoms: _7  and  _9
REMARK    4  A    between atoms: _9  and  _10
REMARK    5  A    between atoms: _9  and  _12
REMARK    6  A    between atoms: _12  and  _13
REMARK    7  A    between atoms: _15  and  _17
REMARK    8  A    between atoms: _17  and  _18
REMARK    9  A    between atoms: _17  and  _20
REMARK   10  A    between atoms: _20  and  _21
REMARK   11  A    between atoms: _23  and  _25
REMARK   12  A    between atoms: _25  and  _26
REMARK   13  A    between atoms: _29  and  _31
REMARK   14  A    between atoms: _31  and  _32
REMARK   15  A    between atoms: _31  and  _34
REMARK   16  A    between atoms: _34  and  _35
REMARK   17  A    between atoms: _40  and  _41
REMARK   18  A    between atoms: _43  and  _45
REMARK   19  A    between atoms: _45  and  _46
REMARK   20  A    between atoms: _45  and  _48
REMARK   21  A    between atoms: _48  and  _49
REMARK   22  A    between atoms: _49  and  _50
REMARK   23  A    between atoms: _55  and  _57
REMARK   24  A    between atoms: _57  and  _58
REMARK   25  A    between atoms: _57  and  _60
REMARK   26  A    between atoms: _60  and  _61
REMARK   27  A    between atoms: _67  and  _69
REMARK   28  A    between atoms: _69  and  _70
REMARK   29  A    between atoms: _69  and  _72
REMARK   30  A    between atoms: _72  and  _73
REMARK   31  A    between atoms: _83  and  _85
REMARK   32  A    between atoms: _85  and  _86
REMARK   33  A    between atoms: _85  and  _88
REMARK   34  A    between atoms: _88  and  _89
REMARK   35  A    between atoms: _91  and  _93
REMARK   36  A    between atoms: _93  and  _94
REMARK   37  A    between atoms: _93  and  _96
REMARK   38  A    between atoms: _96  and  _97
REMARK   39  A    between atoms: _97  and  _98
REMARK   40  A    between atoms: _98  and  _99
REMARK   41  A    between atoms: _108  and  _110
REMARK   42  A    between atoms: _110  and  _111
REMARK   43  A    between atoms: _110  and  _113
REMARK   44  A    between atoms: _113  and  _114
REMARK   45  A    between atoms: _117  and  _119
REMARK   46  A    between atoms: _119  and  _120
REMARK   47  A    between atoms: _119  and  _122
REMARK   48  A    between atoms: _122  and  _123
REMARK   49  A    between atoms: _128  and  _130
REMARK   50  A    between atoms: _130  and  _131
REMARK   51  A    between atoms: _130  and  _133
REMARK   52  A    between atoms: _133  and  _134
REMARK   53  A    between atoms: _144  and  _146
REMARK   54  A    between atoms: _146  and  _147
REMARK   55  A    between atoms: _146  and  _149
REMARK   56  A    between atoms: _149  and  _150
REMARK   57  A    between atoms: _155  and  _157
REMARK   58  A    between atoms: _157  and  _158
REMARK   59  A    between atoms: _157  and  _160
REMARK   60  A    between atoms: _160  and  _161
REMARK   61  A    between atoms: _161  and  _162
REMARK   62  A    between atoms: _165  and  _167
REMARK   63  A    between atoms: _167  and  _168
REMARK   64  A    between atoms: _167  and  _170
REMARK   65  A    between atoms: _170  and  _171
REMARK   66  A    between atoms: _181  and  _183
REMARK   67  A    between atoms: _183  and  _184
REMARK   68  A    between atoms: _183  and  _186
REMARK   69  A    between atoms: _186  and  _187
REMARK   70  A    between atoms: _189  and  _191
REMARK   71  A    between atoms: _191  and  _192
REMARK   72  A    between atoms: _191  and  _194
REMARK   73  A    between atoms: _194  and  _195
REMARK   74  A    between atoms: _200  and  _201
REMARK   75  A    between atoms: _203  and  _205
REMARK   76  A    between atoms: _205  and  _206
REMARK   77  A    between atoms: _205  and  _208
REMARK   78  A    between atoms: _208  and  _209
REMARK   79  A    between atoms: _211  and  _213
REMARK   80  A    between atoms: _213  and  _214
REMARK   81  A    between atoms: _213  and  _216
REMARK   82  A    between atoms: _216  and  _217
REMARK   83  A    between atoms: _222  and  _223
REMARK   84  A    between atoms: _225  and  _227
REMARK   85  A    between atoms: _227  and  _228
REMARK   86  A    between atoms: _230  and  _232
REMARK   87  A    between atoms: _232  and  _233
REMARK   88  A    between atoms: _235  and  _237
REMARK   89  A    between atoms: _237  and  _238
REMARK   90  A    between atoms: _237  and  _240
REMARK   91  A    between atoms: _240  and  _241
REMARK   92  A    between atoms: _246  and  _247
REMARK   93  A    between atoms: _249  and  _251
REMARK   94  A    between atoms: _251  and  _252
REMARK   95  A    between atoms: _251  and  _254
REMARK   96  A    between atoms: _254  and  _255
REMARK   97  A    between atoms: _258  and  _260
REMARK   98  A    between atoms: _260  and  _261
REMARK   99  A    between atoms: _264  and  _266
REMARK  100  A    between atoms: _266  and  _267
REMARK  101  A    between atoms: _269  and  _271
REMARK  102  A    between atoms: _271  and  _272
REMARK  103  A    between atoms: _271  and  _274
REMARK  104  A    between atoms: _274  and  _275
REMARK  105  A    between atoms: _278  and  _280
REMARK  106  A    between atoms: _280  and  _281
REMARK  107  A    between atoms: _280  and  _283
REMARK  108  A    between atoms: _283  and  _284
REMARK  109  A    between atoms: _287  and  _289
REMARK  110  A    between atoms: _289  and  _290
REMARK  111  A    between atoms: _289  and  _292
REMARK  112  A    between atoms: _292  and  _293
REMARK  113  A    between atoms: _296  and  _298
REMARK  114  A    between atoms: _298  and  _299
REMARK  115  A    between atoms: _298  and  _301
REMARK  116  A    between atoms: _304  and  _306
REMARK  117  A    between atoms: _306  and  _307
REMARK  118  A    between atoms: _306  and  _309
REMARK  119  A    between atoms: _309  and  _310
REMARK  120  A    between atoms: _313  and  _315
REMARK  121  A    between atoms: _315  and  _316
REMARK  122  A    between atoms: _315  and  _318
REMARK  123  A    between atoms: _318  and  _319
REMARK  124  A    between atoms: _324  and  _325
REMARK  125  A    between atoms: _327  and  _329
REMARK  126  A    between atoms: _329  and  _330
REMARK  127  A    between atoms: _329  and  _332
REMARK  128  A    between atoms: _332  and  _333
REMARK  129  A    between atoms: _333  and  _334
REMARK  130  A    between atoms: _336  and  _338
REMARK  131  A    between atoms: _338  and  _339
REMARK  132  A    between atoms: _338  and  _341
REMARK  133  A    between atoms: _341  and  _342
REMARK  134  A    between atoms: _347  and  _349
REMARK  135  A    between atoms: _349  and  _350
REMARK  136  A    between atoms: _349  and  _352
REMARK  137  A    between atoms: _352  and  _353
REMARK  138  A    between atoms: _358  and  _359
REMARK  139  A    between atoms: _361  and  _363
REMARK  140  A    between atoms: _363  and  _364
REMARK  141  A    between atoms: _363  and  _366
REMARK  142  A    between atoms: _366  and  _367
REMARK  143  A    between atoms: _372  and  _373
REMARK  144  A    between atoms: _375  and  _377
REMARK  145  A    between atoms: _377  and  _378
REMARK  146  A    between atoms: _377  and  _380
REMARK  147  A    between atoms: _380  and  _381
REMARK  148  A    between atoms: _384  and  _386
REMARK  149  A    between atoms: _386  and  _387
REMARK  150  A    between atoms: _386  and  _389
REMARK  151  A    between atoms: _389  and  _390
REMARK  152  A    between atoms: _395  and  _397
REMARK  153  A    between atoms: _397  and  _398
REMARK  154  A    between atoms: _397  and  _400
REMARK  155  A    between atoms: _400  and  _401
REMARK  156  A    between atoms: _401  and  _402
REMARK  157  A    between atoms: _407  and  _409
REMARK  158  A    between atoms: _409  and  _410
REMARK  159  A    between atoms: _409  and  _412
REMARK  160  A    between atoms: _412  and  _413
REMARK  161  A    between atoms: _416  and  _418
REMARK  162  A    between atoms: _418  and  _419
REMARK  163  A    between atoms: _421  and  _423
REMARK  164  A    between atoms: _423  and  _424
REMARK  165  A    between atoms: _423  and  _426
REMARK  166  A    between atoms: _430  and  _431
REMARK  167  A    between atoms: _436  and  _438
REMARK  168  A    between atoms: _438  and  _439
REMARK  169  A    between atoms: _442  and  _444
REMARK  170  A    between atoms: _444  and  _445
REMARK  171  A    between atoms: _444  and  _447
REMARK  172  A    between atoms: _447  and  _448
REMARK  173  A    between atoms: _454  and  _456
REMARK  174  A    between atoms: _456  and  _457
REMARK  175  A    between atoms: _456  and  _459
REMARK  176  A    between atoms: _459  and  _460
REMARK  177  A    between atoms: _463  and  _465
REMARK  178  A    between atoms: _465  and  _466
REMARK  179  A    between atoms: _465  and  _468
REMARK  180  A    between atoms: _468  and  _469
REMARK  181  A    between atoms: _469  and  _470
REMARK  182  A    between atoms: _473  and  _475
REMARK  183  A    between atoms: _475  and  _476
REMARK  184  A    between atoms: _475  and  _478
REMARK  185  A    between atoms: _478  and  _479
REMARK  186  A    between atoms: _484  and  _486
REMARK  187  A    between atoms: _486  and  _487
REMARK  188  A    between atoms: _489  and  _491
REMARK  189  A    between atoms: _491  and  _492
REMARK  190  A    between atoms: _491  and  _494
REMARK  191  A    between atoms: _494  and  _495
REMARK  192  A    between atoms: _495  and  _496
REMARK  193  A    between atoms: _498  and  _500
REMARK  194  A    between atoms: _500  and  _501
REMARK  195  A    between atoms: _503  and  _505
REMARK  196  A    between atoms: _505  and  _506
REMARK  197  A    between atoms: _505  and  _508
REMARK  198  A    between atoms: _508  and  _509
REMARK  199  A    between atoms: _519  and  _521
REMARK  200  A    between atoms: _521  and  _522
REMARK  201  A    between atoms: _525  and  _527
REMARK  202  A    between atoms: _527  and  _528
REMARK  203  A    between atoms: _527  and  _530
REMARK  204  A    between atoms: _530  and  _531
REMARK  205  A    between atoms: _534  and  _536
REMARK  206  A    between atoms: _536  and  _537
REMARK  207  A    between atoms: _536  and  _539
REMARK  208  A    between atoms: _539  and  _540
REMARK  209  A    between atoms: _545  and  _547
REMARK  210  A    between atoms: _547  and  _548
REMARK  211  A    between atoms: _547  and  _550
REMARK  212  A    between atoms: _550  and  _551
REMARK  213  A    between atoms: _557  and  _559
REMARK  214  A    between atoms: _559  and  _560
REMARK  215  A    between atoms: _559  and  _562
REMARK  216  A    between atoms: _562  and  _563
REMARK  217  A    between atoms: _563  and  _564
REMARK  218  A    between atoms: _567  and  _569
REMARK  219  A    between atoms: _569  and  _570
REMARK  220  A    between atoms: _569  and  _572
REMARK  221  A    between atoms: _572  and  _573
REMARK  222  A    between atoms: _583  and  _585
REMARK  223  A    between atoms: _585  and  _586
REMARK  224  A    between atoms: _585  and  _588
REMARK  225  A    between atoms: _588  and  _589
REMARK  226  A    between atoms: _592  and  _594
REMARK  227  A    between atoms: _594  and  _595
REMARK  228  A    between atoms: _594  and  _597
REMARK  229  A    between atoms: _597  and  _598
REMARK  230  A    between atoms: _600  and  _602
REMARK  231  A    between atoms: _602  and  _603
REMARK  232  A    between atoms: _605  and  _607
REMARK  233  A    between atoms: _607  and  _608
REMARK  234  A    between atoms: _607  and  _610
REMARK  235  A    between atoms: _610  and  _611
REMARK  236  A    between atoms: _614  and  _616
REMARK  237  A    between atoms: _616  and  _617
REMARK  238  A    between atoms: _616  and  _619
REMARK  239  A    between atoms: _619  and  _620
REMARK  240  A    between atoms: _620  and  _621
REMARK  241  A    between atoms: _626  and  _628
REMARK  242  A    between atoms: _628  and  _629
REMARK  243  A    between atoms: _628  and  _631
REMARK  244  A    between atoms: _631  and  _632
REMARK                            x       y       z     vdW  Elec       q    Type
REMARK                         _______ _______ _______ _____ _____    ______ ____
ROOT
ATOM      1  O   HOH     1      -5.997  29.044  14.070  0.00  0.00    +0.000 OA
ENDROOT
TORSDOF 0
REMARK  Name = ../refined-set-2016/3wq6/3wq6_pocket.pdb
REMARK  244 active torsions:
REMARK  status: ('A' for Active; 'I' for Inactive)
REMARK    1  A    between atoms: _1  and  _3
REMARK    2  A    between atoms: _3  and  _4
REMARK    3  A    between atoms: _7  and  _9
REMARK    4  A    between atoms: _9  and  _10
REMARK    5  A    between atoms: _9  and  _12
REMARK    6  A    between atoms: _12  and  _13
REMARK    7  A    between atoms: _15  and  _17
REMARK    8  A    between atoms: _17  and  _18
REMARK    9  A    between atoms: _17  and  _20
REMARK   10  A    between atoms: _20  and  _21
REMARK   11  A    between atoms: _23  and  _25
REMARK   12  A    between atoms: _25  and  _26
REMARK   13  A    between atoms: _29  and  _31
REMARK   14  A    between atoms: _31  and  _32
REMARK   15  A    between atoms: _31  and  _34
REMARK   16  A    between atoms: _34  and  _35
REMARK   17  A    between atoms: _40  and  _41
REMARK   18  A    between atoms: _43  and  _45
REMARK   19  A    between atoms: _45  and  _46
REMARK   20  A    between atoms: _45  and  _48
REMARK   21  A    between atoms: _48  and  _49
REMARK   22  A    between atoms: _49  and  _50
REMARK   23  A    between atoms: _55  and  _57
REMARK   24  A    between atoms: _57  and  _58
REMARK   25  A    between atoms: _57  and  _60
REMARK   26  A    between atoms: _60  and  _61
REMARK   27  A    between atoms: _67  and  _69
REMARK   28  A    between atoms: _69  and  _70
REMARK   29  A    between atoms: _69  and  _72
REMARK   30  A    between atoms: _72  and  _73
REMARK   31  A    between atoms: _83  and  _85
REMARK   32  A    between atoms: _85  and  _86
REMARK   33  A    between atoms: _85  and  _88
REMARK   34  A    between atoms: _88  and  _89
REMARK   35  A    between atoms: _91  and  _93
REMARK   36  A    between atoms: _93  and  _94
REMARK   37  A    between atoms: _93  and  _96
REMARK   38  A    between atoms: _96  and  _97
REMARK   39  A    between atoms: _97  and  _98
REMARK   40  A    between atoms: _98  and  _99
REMARK   41  A    between atoms: _108  and  _110
REMARK   42  A    between atoms: _110  and  _111
REMARK   43  A    between atoms: _110  and  _113
REMARK   44  A    between atoms: _113  and  _114
REMARK   45  A    between atoms: _117  and  _119
REMARK   46  A    between atoms: _119  and  _120
REMARK   47  A    between atoms: _119  and  _122
REMARK   48  A    between atoms: _122  and  _123
REMARK   49  A    between atoms: _128  and  _130
REMARK   50  A    between atoms: _130  and  _131
REMARK   51  A    between atoms: _130  and  _133
REMARK   52  A    between atoms: _133  and  _134
REMARK   53  A    between atoms: _144  and  _146
REMARK   54  A    between atoms: _146  and  _147
REMARK   55  A    between atoms: _146  and  _149
REMARK   56  A    between atoms: _149  and  _150
REMARK   57  A    between atoms: _155  and  _157
REMARK   58  A    between atoms: _157  and  _158
REMARK   59  A    between atoms: _157  and  _160
REMARK   60  A    between atoms: _160  and  _161
REMARK   61  A    between atoms: _161  and  _162
REMARK   62  A    between atoms: _165  and  _167
REMARK   63  A    between atoms: _167  and  _168
REMARK   64  A    between atoms: _167  and  _170
REMARK   65  A    between atoms: _170  and  _171
REMARK   66  A    between atoms: _181  and  _183
REMARK   67  A    between atoms: _183  and  _184
REMARK   68  A    between atoms: _183  and  _186
REMARK   69  A    between atoms: _186  and  _187
REMARK   70  A    between atoms: _189  and  _191
REMARK   71  A    between atoms: _191  and  _192
REMARK   72  A    between atoms: _191  and  _194
REMARK   73  A    between atoms: _194  and  _195
REMARK   74  A    between atoms: _200  and  _201
REMARK   75  A    between atoms: _203  and  _205
REMARK   76  A    between atoms: _205  and  _206
REMARK   77  A    between atoms: _205  and  _208
REMARK   78  A    between atoms: _208  and  _209
REMARK   79  A    between atoms: _211  and  _213
REMARK   80  A    between atoms: _213  and  _214
REMARK   81  A    between atoms: _213  and  _216
REMARK   82  A    between atoms: _216  and  _217
REMARK   83  A    between atoms: _222  and  _223
REMARK   84  A    between atoms: _225  and  _227
REMARK   85  A    between atoms: _227  and  _228
REMARK   86  A    between atoms: _230  and  _232
REMARK   87  A    between atoms: _232  and  _233
REMARK   88  A    between atoms: _235  and  _237
REMARK   89  A    between atoms: _237  and  _238
REMARK   90  A    between atoms: _237  and  _240
REMARK   91  A    between atoms: _240  and  _241
REMARK   92  A    between atoms: _246  and  _247
REMARK   93  A    between atoms: _249  and  _251
REMARK   94  A    between atoms: _251  and  _252
REMARK   95  A    between atoms: _251  and  _254
REMARK   96  A    between atoms: _254  and  _255
REMARK   97  A    between atoms: _258  and  _260
REMARK   98  A    between atoms: _260  and  _261
REMARK   99  A    between atoms: _264  and  _266
REMARK  100  A    between atoms: _266  and  _267
REMARK  101  A    between atoms: _269  and  _271
REMARK  102  A    between atoms: _271  and  _272
REMARK  103  A    between atoms: _271  and  _274
REMARK  104  A    between atoms: _274  and  _275
REMARK  105  A    between atoms: _278  and  _280
REMARK  106  A    between atoms: _280  and  _281
REMARK  107  A    between atoms: _280  and  _283
REMARK  108  A    between atoms: _283  and  _284
REMARK  109  A    between atoms: _287  and  _289
REMARK  110  A    between atoms: _289  and  _290
REMARK  111  A    between atoms: _289  and  _292
REMARK  112  A    between atoms: _292  and  _293
REMARK  113  A    between atoms: _296  and  _298
REMARK  114  A    between atoms: _298  and  _299
REMARK  115  A    between atoms: _298  and  _301
REMARK  116  A    between atoms: _304  and  _306
REMARK  117  A    between atoms: _306  and  _307
REMARK  118  A    between atoms: _306  and  _309
REMARK  119  A    between atoms: _309  and  _310
REMARK  120  A    between atoms: _313  and  _315
REMARK  121  A    between atoms: _315  and  _316
REMARK  122  A    between atoms: _315  and  _318
REMARK  123  A    between atoms: _318  and  _319
REMARK  124  A    between atoms: _324  and  _325
REMARK  125  A    between atoms: _327  and  _329
REMARK  126  A    between atoms: _329  and  _330
REMARK  127  A    between atoms: _329  and  _332
REMARK  128  A    between atoms: _332  and  _333
REMARK  129  A    between atoms: _333  and  _334
REMARK  130  A    between atoms: _336  and  _338
REMARK  131  A    between atoms: _338  and  _339
REMARK  132  A    between atoms: _338  and  _341
REMARK  133  A    between atoms: _341  and  _342
REMARK  134  A    between atoms: _347  and  _349
REMARK  135  A    between atoms: _349  and  _350
REMARK  136  A    between atoms: _349  and  _352
REMARK  137  A    between atoms: _352  and  _353
REMARK  138  A    between atoms: _358  and  _359
REMARK  139  A    between atoms: _361  and  _363
REMARK  140  A    between atoms: _363  and  _364
REMARK  141  A    between atoms: _363  and  _366
REMARK  142  A    between atoms: _366  and  _367
REMARK  143  A    between atoms: _372  and  _373
REMARK  144  A    between atoms: _375  and  _377
REMARK  145  A    between atoms: _377  and  _378
REMARK  146  A    between atoms: _377  and  _380
REMARK  147  A    between atoms: _380  and  _381
REMARK  148  A    between atoms: _384  and  _386
REMARK  149  A    between atoms: _386  and  _387
REMARK  150  A    between atoms: _386  and  _389
REMARK  151  A    between atoms: _389  and  _390
REMARK  152  A    between atoms: _395  and  _397
REMARK  153  A    between atoms: _397  and  _398
REMARK  154  A    between atoms: _397  and  _400
REMARK  155  A    between atoms: _400  and  _401
REMARK  156  A    between atoms: _401  and  _402
REMARK  157  A    between atoms: _407  and  _409
REMARK  158  A    between atoms: _409  and  _410
REMARK  159  A    between atoms: _409  and  _412
REMARK  160  A    between atoms: _412  and  _413
REMARK  161  A    between atoms: _416  and  _418
REMARK  162  A    between atoms: _418  and  _419
REMARK  163  A    between atoms: _421  and  _423
REMARK  164  A    between atoms: _423  and  _424
REMARK  165  A    between atoms: _423  and  _426
REMARK  166  A    between atoms: _430  and  _431
REMARK  167  A    between atoms: _436  and  _438
REMARK  168  A    between atoms: _438  and  _439
REMARK  169  A    between atoms: _442  and  _444
REMARK  170  A    between atoms: _444  and  _445
REMARK  171  A    between atoms: _444  and  _447
REMARK  172  A    between atoms: _447  and  _448
REMARK  173  A    between atoms: _454  and  _456
REMARK  174  A    between atoms: _456  and  _457
REMARK  175  A    between atoms: _456  and  _459
REMARK  176  A    between atoms: _459  and  _460
REMARK  177  A    between atoms: _463  and  _465
REMARK  178  A    between atoms: _465  and  _466
REMARK  179  A    between atoms: _465  and  _468
REMARK  180  A    between atoms: _468  and  _469
REMARK  181  A    between atoms: _469  and  _470
REMARK  182  A    between atoms: _473  and  _475
REMARK  183  A    between atoms: _475  and  _476
REMARK  184  A    between atoms: _475  and  _478
REMARK  185  A    between atoms: _478  and  _479
REMARK  186  A    between atoms: _484  and  _486
REMARK  187  A    between atoms: _486  and  _487
REMARK  188  A    between atoms: _489  and  _491
REMARK  189  A    between atoms: _491  and  _492
REMARK  190  A    between atoms: _491  and  _494
REMARK  191  A    between atoms: _494  and  _495
REMARK  192  A    between atoms: _495  and  _496
REMARK  193  A    between atoms: _498  and  _500
REMARK  194  A    between atoms: _500  and  _501
REMARK  195  A    between atoms: _503  and  _505
REMARK  196  A    between atoms: _505  and  _506
REMARK  197  A    between atoms: _505  and  _508
REMARK  198  A    between atoms: _508  and  _509
REMARK  199  A    between atoms: _519  and  _521
REMARK  200  A    between atoms: _521  and  _522
REMARK  201  A    between atoms: _525  and  _527
REMARK  202  A    between atoms: _527  and  _528
REMARK  203  A    between atoms: _527  and  _530
REMARK  204  A    between atoms: _530  and  _531
REMARK  205  A    between atoms: _534  and  _536
REMARK  206  A    between atoms: _536  and  _537
REMARK  207  A    between atoms: _536  and  _539
REMARK  208  A    between atoms: _539  and  _540
REMARK  209  A    between atoms: _545  and  _547
REMARK  210  A    between atoms: _547  and  _548
REMARK  211  A    between atoms: _547  and  _550
REMARK  212  A    between atoms: _550  and  _551
REMARK  213  A    between atoms: _557  and  _559
REMARK  214  A    between atoms: _559  and  _560
REMARK  215  A    between atoms: _559  and  _562
REMARK  216  A    between atoms: _562  and  _563
REMARK  217  A    between atoms: _563  and  _564
REMARK  218  A    between atoms: _567  and  _569
REMARK  219  A    between atoms: _569  and  _570
REMARK  220  A    between atoms: _569  and  _572
REMARK  221  A    between atoms: _572  and  _573
REMARK  222  A    between atoms: _583  and  _585
REMARK  223  A    between atoms: _585  and  _586
REMARK  224  A    between atoms: _585  and  _588
REMARK  225  A    between atoms: _588  and  _589
REMARK  226  A    between atoms: _592  and  _594
REMARK  227  A    between atoms: _594  and  _595
REMARK  228  A    between atoms: _594  and  _597
REMARK  229  A    between atoms: _597  and  _598
REMARK  230  A    between atoms: _600  and  _602
REMARK  231  A    between atoms: _602  and  _603
REMARK  232  A    between atoms: _605  and  _607
REMARK  233  A    between atoms: _607  and  _608
REMARK  234  A    between atoms: _607  and  _610
REMARK  235  A    between atoms: _610  and  _611
REMARK  236  A    between atoms: _614  and  _616
REMARK  237  A    between atoms: _616  and  _617
REMARK  238  A    between atoms: _616  and  _619
REMARK  239  A    between atoms: _619  and  _620
REMARK  240  A    between atoms: _620  and  _621
REMARK  241  A    between atoms: _626  and  _628
REMARK  242  A    between atoms: _628  and  _629
REMARK  243  A    between atoms: _628  and  _631
REMARK  244  A    between atoms: _631  and  _632
REMARK                            x       y       z     vdW  Elec       q    Type
REMARK                         _______ _______ _______ _____ _____    ______ ____
ROOT
ATOM      1  O   HOH     1      -2.754  32.335  13.266  0.00  0.00    +0.000 OA
ENDROOT
TORSDOF 0
REMARK  Name = ../refined-set-2016/3wq6/3wq6_pocket.pdb
REMARK  244 active torsions:
REMARK  status: ('A' for Active; 'I' for Inactive)
REMARK    1  A    between atoms: _1  and  _3
REMARK    2  A    between atoms: _3  and  _4
REMARK    3  A    between atoms: _7  and  _9
REMARK    4  A    between atoms: _9  and  _10
REMARK    5  A    between atoms: _9  and  _12
REMARK    6  A    between atoms: _12  and  _13
REMARK    7  A    between atoms: _15  and  _17
REMARK    8  A    between atoms: _17  and  _18
REMARK    9  A    between atoms: _17  and  _20
REMARK   10  A    between atoms: _20  and  _21
REMARK   11  A    between atoms: _23  and  _25
REMARK   12  A    between atoms: _25  and  _26
REMARK   13  A    between atoms: _29  and  _31
REMARK   14  A    between atoms: _31  and  _32
REMARK   15  A    between atoms: _31  and  _34
REMARK   16  A    between atoms: _34  and  _35
REMARK   17  A    between atoms: _40  and  _41
REMARK   18  A    between atoms: _43  and  _45
REMARK   19  A    between atoms: _45  and  _46
REMARK   20  A    between atoms: _45  and  _48
REMARK   21  A    between atoms: _48  and  _49
REMARK   22  A    between atoms: _49  and  _50
REMARK   23  A    between atoms: _55  and  _57
REMARK   24  A    between atoms: _57  and  _58
REMARK   25  A    between atoms: _57  and  _60
REMARK   26  A    between atoms: _60  and  _61
REMARK   27  A    between atoms: _67  and  _69
REMARK   28  A    between atoms: _69  and  _70
REMARK   29  A    between atoms: _69  and  _72
REMARK   30  A    between atoms: _72  and  _73
REMARK   31  A    between atoms: _83  and  _85
REMARK   32  A    between atoms: _85  and  _86
REMARK   33  A    between atoms: _85  and  _88
REMARK   34  A    between atoms: _88  and  _89
REMARK   35  A    between atoms: _91  and  _93
REMARK   36  A    between atoms: _93  and  _94
REMARK   37  A    between atoms: _93  and  _96
REMARK   38  A    between atoms: _96  and  _97
REMARK   39  A    between atoms: _97  and  _98
REMARK   40  A    between atoms: _98  and  _99
REMARK   41  A    between atoms: _108  and  _110
REMARK   42  A    between atoms: _110  and  _111
REMARK   43  A    between atoms: _110  and  _113
REMARK   44  A    between atoms: _113  and  _114
REMARK   45  A    between atoms: _117  and  _119
REMARK   46  A    between atoms: _119  and  _120
REMARK   47  A    between atoms: _119  and  _122
REMARK   48  A    between atoms: _122  and  _123
REMARK   49  A    between atoms: _128  and  _130
REMARK   50  A    between atoms: _130  and  _131
REMARK   51  A    between atoms: _130  and  _133
REMARK   52  A    between atoms: _133  and  _134
REMARK   53  A    between atoms: _144  and  _146
REMARK   54  A    between atoms: _146  and  _147
REMARK   55  A    between atoms: _146  and  _149
REMARK   56  A    between atoms: _149  and  _150
REMARK   57  A    between atoms: _155  and  _157
REMARK   58  A    between atoms: _157  and  _158
REMARK   59  A    between atoms: _157  and  _160
REMARK   60  A    between atoms: _160  and  _161
REMARK   61  A    between atoms: _161  and  _162
REMARK   62  A    between atoms: _165  and  _167
REMARK   63  A    between atoms: _167  and  _168
REMARK   64  A    between atoms: _167  and  _170
REMARK   65  A    between atoms: _170  and  _171
REMARK   66  A    between atoms: _181  and  _183
REMARK   67  A    between atoms: _183  and  _184
REMARK   68  A    between atoms: _183  and  _186
REMARK   69  A    between atoms: _186  and  _187
REMARK   70  A    between atoms: _189  and  _191
REMARK   71  A    between atoms: _191  and  _192
REMARK   72  A    between atoms: _191  and  _194
REMARK   73  A    between atoms: _194  and  _195
REMARK   74  A    between atoms: _200  and  _201
REMARK   75  A    between atoms: _203  and  _205
REMARK   76  A    between atoms: _205  and  _206
REMARK   77  A    between atoms: _205  and  _208
REMARK   78  A    between atoms: _208  and  _209
REMARK   79  A    between atoms: _211  and  _213
REMARK   80  A    between atoms: _213  and  _214
REMARK   81  A    between atoms: _213  and  _216
REMARK   82  A    between atoms: _216  and  _217
REMARK   83  A    between atoms: _222  and  _223
REMARK   84  A    between atoms: _225  and  _227
REMARK   85  A    between atoms: _227  and  _228
REMARK   86  A    between atoms: _230  and  _232
REMARK   87  A    between atoms: _232  and  _233
REMARK   88  A    between atoms: _235  and  _237
REMARK   89  A    between atoms: _237  and  _238
REMARK   90  A    between atoms: _237  and  _240
REMARK   91  A    between atoms: _240  and  _241
REMARK   92  A    between atoms: _246  and  _247
REMARK   93  A    between atoms: _249  and  _251
REMARK   94  A    between atoms: _251  and  _252
REMARK   95  A    between atoms: _251  and  _254
REMARK   96  A    between atoms: _254  and  _255
REMARK   97  A    between atoms: _258  and  _260
REMARK   98  A    between atoms: _260  and  _261
REMARK   99  A    between atoms: _264  and  _266
REMARK  100  A    between atoms: _266  and  _267
REMARK  101  A    between atoms: _269  and  _271
REMARK  102  A    between atoms: _271  and  _272
REMARK  103  A    between atoms: _271  and  _274
REMARK  104  A    between atoms: _274  and  _275
REMARK  105  A    between atoms: _278  and  _280
REMARK  106  A    between atoms: _280  and  _281
REMARK  107  A    between atoms: _280  and  _283
REMARK  108  A    between atoms: _283  and  _284
REMARK  109  A    between atoms: _287  and  _289
REMARK  110  A    between atoms: _289  and  _290
REMARK  111  A    between atoms: _289  and  _292
REMARK  112  A    between atoms: _292  and  _293
REMARK  113  A    between atoms: _296  and  _298
REMARK  114  A    between atoms: _298  and  _299
REMARK  115  A    between atoms: _298  and  _301
REMARK  116  A    between atoms: _304  and  _306
REMARK  117  A    between atoms: _306  and  _307
REMARK  118  A    between atoms: _306  and  _309
REMARK  119  A    between atoms: _309  and  _310
REMARK  120  A    between atoms: _313  and  _315
REMARK  121  A    between atoms: _315  and  _316
REMARK  122  A    between atoms: _315  and  _318
REMARK  123  A    between atoms: _318  and  _319
REMARK  124  A    between atoms: _324  and  _325
REMARK  125  A    between atoms: _327  and  _329
REMARK  126  A    between atoms: _329  and  _330
REMARK  127  A    between atoms: _329  and  _332
REMARK  128  A    between atoms: _332  and  _333
REMARK  129  A    between atoms: _333  and  _334
REMARK  130  A    between atoms: _336  and  _338
REMARK  131  A    between atoms: _338  and  _339
REMARK  132  A    between atoms: _338  and  _341
REMARK  133  A    between atoms: _341  and  _342
REMARK  134  A    between atoms: _347  and  _349
REMARK  135  A    between atoms: _349  and  _350
REMARK  136  A    between atoms: _349  and  _352
REMARK  137  A    between atoms: _352  and  _353
REMARK  138  A    between atoms: _358  and  _359
REMARK  139  A    between atoms: _361  and  _363
REMARK  140  A    between atoms: _363  and  _364
REMARK  141  A    between atoms: _363  and  _366
REMARK  142  A    between atoms: _366  and  _367
REMARK  143  A    between atoms: _372  and  _373
REMARK  144  A    between atoms: _375  and  _377
REMARK  145  A    between atoms: _377  and  _378
REMARK  146  A    between atoms: _377  and  _380
REMARK  147  A    between atoms: _380  and  _381
REMARK  148  A    between atoms: _384  and  _386
REMARK  149  A    between atoms: _386  and  _387
REMARK  150  A    between atoms: _386  and  _389
REMARK  151  A    between atoms: _389  and  _390
REMARK  152  A    between atoms: _395  and  _397
REMARK  153  A    between atoms: _397  and  _398
REMARK  154  A    between atoms: _397  and  _400
REMARK  155  A    between atoms: _400  and  _401
REMARK  156  A    between atoms: _401  and  _402
REMARK  157  A    between atoms: _407  and  _409
REMARK  158  A    between atoms: _409  and  _410
REMARK  159  A    between atoms: _409  and  _412
REMARK  160  A    between atoms: _412  and  _413
REMARK  161  A    between atoms: _416  and  _418
REMARK  162  A    between atoms: _418  and  _419
REMARK  163  A    between atoms: _421  and  _423
REMARK  164  A    between atoms: _423  and  _424
REMARK  165  A    between atoms: _423  and  _426
REMARK  166  A    between atoms: _430  and  _431
REMARK  167  A    between atoms: _436  and  _438
REMARK  168  A    between atoms: _438  and  _439
REMARK  169  A    between atoms: _442  and  _444
REMARK  170  A    between atoms: _444  and  _445
REMARK  171  A    between atoms: _444  and  _447
REMARK  172  A    between atoms: _447  and  _448
REMARK  173  A    between atoms: _454  and  _456
REMARK  174  A    between atoms: _456  and  _457
REMARK  175  A    between atoms: _456  and  _459
REMARK  176  A    between atoms: _459  and  _460
REMARK  177  A    between atoms: _463  and  _465
REMARK  178  A    between atoms: _465  and  _466
REMARK  179  A    between atoms: _465  and  _468
REMARK  180  A    between atoms: _468  and  _469
REMARK  181  A    between atoms: _469  and  _470
REMARK  182  A    between atoms: _473  and  _475
REMARK  183  A    between atoms: _475  and  _476
REMARK  184  A    between atoms: _475  and  _478
REMARK  185  A    between atoms: _478  and  _479
REMARK  186  A    between atoms: _484  and  _486
REMARK  187  A    between atoms: _486  and  _487
REMARK  188  A    between atoms: _489  and  _491
REMARK  189  A    between atoms: _491  and  _492
REMARK  190  A    between atoms: _491  and  _494
REMARK  191  A    between atoms: _494  and  _495
REMARK  192  A    between atoms: _495  and  _496
REMARK  193  A    between atoms: _498  and  _500
REMARK  194  A    between atoms: _500  and  _501
REMARK  195  A    between atoms: _503  and  _505
REMARK  196  A    between atoms: _505  and  _506
REMARK  197  A    between atoms: _505  and  _508
REMARK  198  A    between atoms: _508  and  _509
REMARK  199  A    between atoms: _519  and  _521
REMARK  200  A    between atoms: _521  and  _522
REMARK  201  A    between atoms: _525  and  _527
REMARK  202  A    between atoms: _527  and  _528
REMARK  203  A    between atoms: _527  and  _530
REMARK  204  A    between atoms: _530  and  _531
REMARK  205  A    between atoms: _534  and  _536
REMARK  206  A    between atoms: _536  and  _537
REMARK  207  A    between atoms: _536  and  _539
REMARK  208  A    between atoms: _539  and  _540
REMARK  209  A    between atoms: _545  and  _547
REMARK  210  A    between atoms: _547  and  _548
REMARK  211  A    between atoms: _547  and  _550
REMARK  212  A    between atoms: _550  and  _551
REMARK  213  A    between atoms: _557  and  _559
REMARK  214  A    between atoms: _559  and  _560
REMARK  215  A    between atoms: _559  and  _562
REMARK  216  A    between atoms: _562  and  _563
REMARK  217  A    between atoms: _563  and  _564
REMARK  218  A    between atoms: _567  and  _569
REMARK  219  A    between atoms: _569  and  _570
REMARK  220  A    between atoms: _569  and  _572
REMARK  221  A    between atoms: _572  and  _573
REMARK  222  A    between atoms: _583  and  _585
REMARK  223  A    between atoms: _585  and  _586
REMARK  224  A    between atoms: _585  and  _588
REMARK  225  A    between atoms: _588  and  _589
REMARK  226  A    between atoms: _592  and  _594
REMARK  227  A    between atoms: _594  and  _595
REMARK  228  A    between atoms: _594  and  _597
REMARK  229  A    between atoms: _597  and  _598
REMARK  230  A    between atoms: _600  and  _602
REMARK  231  A    between atoms: _602  and  _603
REMARK  232  A    between atoms: _605  and  _607
REMARK  233  A    between atoms: _607  and  _608
REMARK  234  A    between atoms: _607  and  _610
REMARK  235  A    between atoms: _610  and  _611
REMARK  236  A    between atoms: _614  and  _616
REMARK  237  A    between atoms: _616  and  _617
REMARK  238  A    between atoms: _616  and  _619
REMARK  239  A    between atoms: _619  and  _620
REMARK  240  A    between atoms: _620  and  _621
REMARK  241  A    between atoms: _626  and  _628
REMARK  242  A    between atoms: _628  and  _629
REMARK  243  A    between atoms: _628  and  _631
REMARK  244  A    between atoms: _631  and  _632
REMARK                            x       y       z     vdW  Elec       q    Type
REMARK                         _______ _______ _______ _____ _____    ______ ____
ROOT
ATOM      1  O   HOH     1      -8.006  42.140  17.516  0.00  0.00    +0.000 OA
ENDROOT
TORSDOF 0
REMARK  Name = ../refined-set-2016/3wq6/3wq6_pocket.pdb
REMARK  244 active torsions:
REMARK  status: ('A' for Active; 'I' for Inactive)
REMARK    1  A    between atoms: _1  and  _3
REMARK    2  A    between atoms: _3  and  _4
REMARK    3  A    between atoms: _7  and  _9
REMARK    4  A    between atoms: _9  and  _10
REMARK    5  A    between atoms: _9  and  _12
REMARK    6  A    between atoms: _12  and  _13
REMARK    7  A    between atoms: _15  and  _17
REMARK    8  A    between atoms: _17  and  _18
REMARK    9  A    between atoms: _17  and  _20
REMARK   10  A    between atoms: _20  and  _21
REMARK   11  A    between atoms: _23  and  _25
REMARK   12  A    between atoms: _25  and  _26
REMARK   13  A    between atoms: _29  and  _31
REMARK   14  A    between atoms: _31  and  _32
REMARK   15  A    between atoms: _31  and  _34
REMARK   16  A    between atoms: _34  and  _35
REMARK   17  A    between atoms: _40  and  _41
REMARK   18  A    between atoms: _43  and  _45
REMARK   19  A    between atoms: _45  and  _46
REMARK   20  A    between atoms: _45  and  _48
REMARK   21  A    between atoms: _48  and  _49
REMARK   22  A    between atoms: _49  and  _50
REMARK   23  A    between atoms: _55  and  _57
REMARK   24  A    between atoms: _57  and  _58
REMARK   25  A    between atoms: _57  and  _60
REMARK   26  A    between atoms: _60  and  _61
REMARK   27  A    between atoms: _67  and  _69
REMARK   28  A    between atoms: _69  and  _70
REMARK   29  A    between atoms: _69  and  _72
REMARK   30  A    between atoms: _72  and  _73
REMARK   31  A    between atoms: _83  and  _85
REMARK   32  A    between atoms: _85  and  _86
REMARK   33  A    between atoms: _85  and  _88
REMARK   34  A    between atoms: _88  and  _89
REMARK   35  A    between atoms: _91  and  _93
REMARK   36  A    between atoms: _93  and  _94
REMARK   37  A    between atoms: _93  and  _96
REMARK   38  A    between atoms: _96  and  _97
REMARK   39  A    between atoms: _97  and  _98
REMARK   40  A    between atoms: _98  and  _99
REMARK   41  A    between atoms: _108  and  _110
REMARK   42  A    between atoms: _110  and  _111
REMARK   43  A    between atoms: _110  and  _113
REMARK   44  A    between atoms: _113  and  _114
REMARK   45  A    between atoms: _117  and  _119
REMARK   46  A    between atoms: _119  and  _120
REMARK   47  A    between atoms: _119  and  _122
REMARK   48  A    between atoms: _122  and  _123
REMARK   49  A    between atoms: _128  and  _130
REMARK   50  A    between atoms: _130  and  _131
REMARK   51  A    between atoms: _130  and  _133
REMARK   52  A    between atoms: _133  and  _134
REMARK   53  A    between atoms: _144  and  _146
REMARK   54  A    between atoms: _146  and  _147
REMARK   55  A    between atoms: _146  and  _149
REMARK   56  A    between atoms: _149  and  _150
REMARK   57  A    between atoms: _155  and  _157
REMARK   58  A    between atoms: _157  and  _158
REMARK   59  A    between atoms: _157  and  _160
REMARK   60  A    between atoms: _160  and  _161
REMARK   61  A    between atoms: _161  and  _162
REMARK   62  A    between atoms: _165  and  _167
REMARK   63  A    between atoms: _167  and  _168
REMARK   64  A    between atoms: _167  and  _170
REMARK   65  A    between atoms: _170  and  _171
REMARK   66  A    between atoms: _181  and  _183
REMARK   67  A    between atoms: _183  and  _184
REMARK   68  A    between atoms: _183  and  _186
REMARK   69  A    between atoms: _186  and  _187
REMARK   70  A    between atoms: _189  and  _191
REMARK   71  A    between atoms: _191  and  _192
REMARK   72  A    between atoms: _191  and  _194
REMARK   73  A    between atoms: _194  and  _195
REMARK   74  A    between atoms: _200  and  _201
REMARK   75  A    between atoms: _203  and  _205
REMARK   76  A    between atoms: _205  and  _206
REMARK   77  A    between atoms: _205  and  _208
REMARK   78  A    between atoms: _208  and  _209
REMARK   79  A    between atoms: _211  and  _213
REMARK   80  A    between atoms: _213  and  _214
REMARK   81  A    between atoms: _213  and  _216
REMARK   82  A    between atoms: _216  and  _217
REMARK   83  A    between atoms: _222  and  _223
REMARK   84  A    between atoms: _225  and  _227
REMARK   85  A    between atoms: _227  and  _228
REMARK   86  A    between atoms: _230  and  _232
REMARK   87  A    between atoms: _232  and  _233
REMARK   88  A    between atoms: _235  and  _237
REMARK   89  A    between atoms: _237  and  _238
REMARK   90  A    between atoms: _237  and  _240
REMARK   91  A    between atoms: _240  and  _241
REMARK   92  A    between atoms: _246  and  _247
REMARK   93  A    between atoms: _249  and  _251
REMARK   94  A    between atoms: _251  and  _252
REMARK   95  A    between atoms: _251  and  _254
REMARK   96  A    between atoms: _254  and  _255
REMARK   97  A    between atoms: _258  and  _260
REMARK   98  A    between atoms: _260  and  _261
REMARK   99  A    between atoms: _264  and  _266
REMARK  100  A    between atoms: _266  and  _267
REMARK  101  A    between atoms: _269  and  _271
REMARK  102  A    between atoms: _271  and  _272
REMARK  103  A    between atoms: _271  and  _274
REMARK  104  A    between atoms: _274  and  _275
REMARK  105  A    between atoms: _278  and  _280
REMARK  106  A    between atoms: _280  and  _281
REMARK  107  A    between atoms: _280  and  _283
REMARK  108  A    between atoms: _283  and  _284
REMARK  109  A    between atoms: _287  and  _289
REMARK  110  A    between atoms: _289  and  _290
REMARK  111  A    between atoms: _289  and  _292
REMARK  112  A    between atoms: _292  and  _293
REMARK  113  A    between atoms: _296  and  _298
REMARK  114  A    between atoms: _298  and  _299
REMARK  115  A    between atoms: _298  and  _301
REMARK  116  A    between atoms: _304  and  _306
REMARK  117  A    between atoms: _306  and  _307
REMARK  118  A    between atoms: _306  and  _309
REMARK  119  A    between atoms: _309  and  _310
REMARK  120  A    between atoms: _313  and  _315
REMARK  121  A    between atoms: _315  and  _316
REMARK  122  A    between atoms: _315  and  _318
REMARK  123  A    between atoms: _318  and  _319
REMARK  124  A    between atoms: _324  and  _325
REMARK  125  A    between atoms: _327  and  _329
REMARK  126  A    between atoms: _329  and  _330
REMARK  127  A    between atoms: _329  and  _332
REMARK  128  A    between atoms: _332  and  _333
REMARK  129  A    between atoms: _333  and  _334
REMARK  130  A    between atoms: _336  and  _338
REMARK  131  A    between atoms: _338  and  _339
REMARK  132  A    between atoms: _338  and  _341
REMARK  133  A    between atoms: _341  and  _342
REMARK  134  A    between atoms: _347  and  _349
REMARK  135  A    between atoms: _349  and  _350
REMARK  136  A    between atoms: _349  and  _352
REMARK  137  A    between atoms: _352  and  _353
REMARK  138  A    between atoms: _358  and  _359
REMARK  139  A    between atoms: _361  and  _363
REMARK  140  A    between atoms: _363  and  _364
REMARK  141  A    between atoms: _363  and  _366
REMARK  142  A    between atoms: _366  and  _367
REMARK  143  A    between atoms: _372  and  _373
REMARK  144  A    between atoms: _375  and  _377
REMARK  145  A    between atoms: _377  and  _378
REMARK  146  A    between atoms: _377  and  _380
REMARK  147  A    between atoms: _380  and  _381
REMARK  148  A    between atoms: _384  and  _386
REMARK  149  A    between atoms: _386  and  _387
REMARK  150  A    between atoms: _386  and  _389
REMARK  151  A    between atoms: _389  and  _390
REMARK  152  A    between atoms: _395  and  _397
REMARK  153  A    between atoms: _397  and  _398
REMARK  154  A    between atoms: _397  and  _400
REMARK  155  A    between atoms: _400  and  _401
REMARK  156  A    between atoms: _401  and  _402
REMARK  157  A    between atoms: _407  and  _409
REMARK  158  A    between atoms: _409  and  _410
REMARK  159  A    between atoms: _409  and  _412
REMARK  160  A    between atoms: _412  and  _413
REMARK  161  A    between atoms: _416  and  _418
REMARK  162  A    between atoms: _418  and  _419
REMARK  163  A    between atoms: _421  and  _423
REMARK  164  A    between atoms: _423  and  _424
REMARK  165  A    between atoms: _423  and  _426
REMARK  166  A    between atoms: _430  and  _431
REMARK  167  A    between atoms: _436  and  _438
REMARK  168  A    between atoms: _438  and  _439
REMARK  169  A    between atoms: _442  and  _444
REMARK  170  A    between atoms: _444  and  _445
REMARK  171  A    between atoms: _444  and  _447
REMARK  172  A    between atoms: _447  and  _448
REMARK  173  A    between atoms: _454  and  _456
REMARK  174  A    between atoms: _456  and  _457
REMARK  175  A    between atoms: _456  and  _459
REMARK  176  A    between atoms: _459  and  _460
REMARK  177  A    between atoms: _463  and  _465
REMARK  178  A    between atoms: _465  and  _466
REMARK  179  A    between atoms: _465  and  _468
REMARK  180  A    between atoms: _468  and  _469
REMARK  181  A    between atoms: _469  and  _470
REMARK  182  A    between atoms: _473  and  _475
REMARK  183  A    between atoms: _475  and  _476
REMARK  184  A    between atoms: _475  and  _478
REMARK  185  A    between atoms: _478  and  _479
REMARK  186  A    between atoms: _484  and  _486
REMARK  187  A    between atoms: _486  and  _487
REMARK  188  A    between atoms: _489  and  _491
REMARK  189  A    between atoms: _491  and  _492
REMARK  190  A    between atoms: _491  and  _494
REMARK  191  A    between atoms: _494  and  _495
REMARK  192  A    between atoms: _495  and  _496
REMARK  193  A    between atoms: _498  and  _500
REMARK  194  A    between atoms: _500  and  _501
REMARK  195  A    between atoms: _503  and  _505
REMARK  196  A    between atoms: _505  and  _506
REMARK  197  A    between atoms: _505  and  _508
REMARK  198  A    between atoms: _508  and  _509
REMARK  199  A    between atoms: _519  and  _521
REMARK  200  A    between atoms: _521  and  _522
REMARK  201  A    between atoms: _525  and  _527
REMARK  202  A    between atoms: _527  and  _528
REMARK  203  A    between atoms: _527  and  _530
REMARK  204  A    between atoms: _530  and  _531
REMARK  205  A    between atoms: _534  and  _536
REMARK  206  A    between atoms: _536  and  _537
REMARK  207  A    between atoms: _536  and  _539
REMARK  208  A    between atoms: _539  and  _540
REMARK  209  A    between atoms: _545  and  _547
REMARK  210  A    between atoms: _547  and  _548
REMARK  211  A    between atoms: _547  and  _550
REMARK  212  A    between atoms: _550  and  _551
REMARK  213  A    between atoms: _557  and  _559
REMARK  214  A    between atoms: _559  and  _560
REMARK  215  A    between atoms: _559  and  _562
REMARK  216  A    between atoms: _562  and  _563
REMARK  217  A    between atoms: _563  and  _564
REMARK  218  A    between atoms: _567  and  _569
REMARK  219  A    between atoms: _569  and  _570
REMARK  220  A    between atoms: _569  and  _572
REMARK  221  A    between atoms: _572  and  _573
REMARK  222  A    between atoms: _583  and  _585
REMARK  223  A    between atoms: _585  and  _586
REMARK  224  A    between atoms: _585  and  _588
REMARK  225  A    between atoms: _588  and  _589
REMARK  226  A    between atoms: _592  and  _594
REMARK  227  A    between atoms: _594  and  _595
REMARK  228  A    between atoms: _594  and  _597
REMARK  229  A    between atoms: _597  and  _598
REMARK  230  A    between atoms: _600  and  _602
REMARK  231  A    between atoms: _602  and  _603
REMARK  232  A    between atoms: _605  and  _607
REMARK  233  A    between atoms: _607  and  _608
REMARK  234  A    between atoms: _607  and  _610
REMARK  235  A    between atoms: _610  and  _611
REMARK  236  A    between atoms: _614  and  _616
REMARK  237  A    between atoms: _616  and  _617
REMARK  238  A    between atoms: _616  and  _619
REMARK  239  A    between atoms: _619  and  _620
REMARK  240  A    between atoms: _620  and  _621
REMARK  241  A    between atoms: _626  and  _628
REMARK  242  A    between atoms: _628  and  _629
REMARK  243  A    between atoms: _628  and  _631
REMARK  244  A    between atoms: _631  and  _632
REMARK                            x       y       z     vdW  Elec       q    Type
REMARK                         _______ _______ _______ _____ _____    ______ ____
ROOT
ATOM      1  O   HOH     1      -1.455  32.064  10.924  0.00  0.00    +0.000 OA
ENDROOT
TORSDOF 0
REMARK  Name = ../refined-set-2016/3wq6/3wq6_pocket.pdb
REMARK  244 active torsions:
REMARK  status: ('A' for Active; 'I' for Inactive)
REMARK    1  A    between atoms: _1  and  _3
REMARK    2  A    between atoms: _3  and  _4
REMARK    3  A    between atoms: _7  and  _9
REMARK    4  A    between atoms: _9  and  _10
REMARK    5  A    between atoms: _9  and  _12
REMARK    6  A    between atoms: _12  and  _13
REMARK    7  A    between atoms: _15  and  _17
REMARK    8  A    between atoms: _17  and  _18
REMARK    9  A    between atoms: _17  and  _20
REMARK   10  A    between atoms: _20  and  _21
REMARK   11  A    between atoms: _23  and  _25
REMARK   12  A    between atoms: _25  and  _26
REMARK   13  A    between atoms: _29  and  _31
REMARK   14  A    between atoms: _31  and  _32
REMARK   15  A    between atoms: _31  and  _34
REMARK   16  A    between atoms: _34  and  _35
REMARK   17  A    between atoms: _40  and  _41
REMARK   18  A    between atoms: _43  and  _45
REMARK   19  A    between atoms: _45  and  _46
REMARK   20  A    between atoms: _45  and  _48
REMARK   21  A    between atoms: _48  and  _49
REMARK   22  A    between atoms: _49  and  _50
REMARK   23  A    between atoms: _55  and  _57
REMARK   24  A    between atoms: _57  and  _58
REMARK   25  A    between atoms: _57  and  _60
REMARK   26  A    between atoms: _60  and  _61
REMARK   27  A    between atoms: _67  and  _69
REMARK   28  A    between atoms: _69  and  _70
REMARK   29  A    between atoms: _69  and  _72
REMARK   30  A    between atoms: _72  and  _73
REMARK   31  A    between atoms: _83  and  _85
REMARK   32  A    between atoms: _85  and  _86
REMARK   33  A    between atoms: _85  and  _88
REMARK   34  A    between atoms: _88  and  _89
REMARK   35  A    between atoms: _91  and  _93
REMARK   36  A    between atoms: _93  and  _94
REMARK   37  A    between atoms: _93  and  _96
REMARK   38  A    between atoms: _96  and  _97
REMARK   39  A    between atoms: _97  and  _98
REMARK   40  A    between atoms: _98  and  _99
REMARK   41  A    between atoms: _108  and  _110
REMARK   42  A    between atoms: _110  and  _111
REMARK   43  A    between atoms: _110  and  _113
REMARK   44  A    between atoms: _113  and  _114
REMARK   45  A    between atoms: _117  and  _119
REMARK   46  A    between atoms: _119  and  _120
REMARK   47  A    between atoms: _119  and  _122
REMARK   48  A    between atoms: _122  and  _123
REMARK   49  A    between atoms: _128  and  _130
REMARK   50  A    between atoms: _130  and  _131
REMARK   51  A    between atoms: _130  and  _133
REMARK   52  A    between atoms: _133  and  _134
REMARK   53  A    between atoms: _144  and  _146
REMARK   54  A    between atoms: _146  and  _147
REMARK   55  A    between atoms: _146  and  _149
REMARK   56  A    between atoms: _149  and  _150
REMARK   57  A    between atoms: _155  and  _157
REMARK   58  A    between atoms: _157  and  _158
REMARK   59  A    between atoms: _157  and  _160
REMARK   60  A    between atoms: _160  and  _161
REMARK   61  A    between atoms: _161  and  _162
REMARK   62  A    between atoms: _165  and  _167
REMARK   63  A    between atoms: _167  and  _168
REMARK   64  A    between atoms: _167  and  _170
REMARK   65  A    between atoms: _170  and  _171
REMARK   66  A    between atoms: _181  and  _183
REMARK   67  A    between atoms: _183  and  _184
REMARK   68  A    between atoms: _183  and  _186
REMARK   69  A    between atoms: _186  and  _187
REMARK   70  A    between atoms: _189  and  _191
REMARK   71  A    between atoms: _191  and  _192
REMARK   72  A    between atoms: _191  and  _194
REMARK   73  A    between atoms: _194  and  _195
REMARK   74  A    between atoms: _200  and  _201
REMARK   75  A    between atoms: _203  and  _205
REMARK   76  A    between atoms: _205  and  _206
REMARK   77  A    between atoms: _205  and  _208
REMARK   78  A    between atoms: _208  and  _209
REMARK   79  A    between atoms: _211  and  _213
REMARK   80  A    between atoms: _213  and  _214
REMARK   81  A    between atoms: _213  and  _216
REMARK   82  A    between atoms: _216  and  _217
REMARK   83  A    between atoms: _222  and  _223
REMARK   84  A    between atoms: _225  and  _227
REMARK   85  A    between atoms: _227  and  _228
REMARK   86  A    between atoms: _230  and  _232
REMARK   87  A    between atoms: _232  and  _233
REMARK   88  A    between atoms: _235  and  _237
REMARK   89  A    between atoms: _237  and  _238
REMARK   90  A    between atoms: _237  and  _240
REMARK   91  A    between atoms: _240  and  _241
REMARK   92  A    between atoms: _246  and  _247
REMARK   93  A    between atoms: _249  and  _251
REMARK   94  A    between atoms: _251  and  _252
REMARK   95  A    between atoms: _251  and  _254
REMARK   96  A    between atoms: _254  and  _255
REMARK   97  A    between atoms: _258  and  _260
REMARK   98  A    between atoms: _260  and  _261
REMARK   99  A    between atoms: _264  and  _266
REMARK  100  A    between atoms: _266  and  _267
REMARK  101  A    between atoms: _269  and  _271
REMARK  102  A    between atoms: _271  and  _272
REMARK  103  A    between atoms: _271  and  _274
REMARK  104  A    between atoms: _274  and  _275
REMARK  105  A    between atoms: _278  and  _280
REMARK  106  A    between atoms: _280  and  _281
REMARK  107  A    between atoms: _280  and  _283
REMARK  108  A    between atoms: _283  and  _284
REMARK  109  A    between atoms: _287  and  _289
REMARK  110  A    between atoms: _289  and  _290
REMARK  111  A    between atoms: _289  and  _292
REMARK  112  A    between atoms: _292  and  _293
REMARK  113  A    between atoms: _296  and  _298
REMARK  114  A    between atoms: _298  and  _299
REMARK  115  A    between atoms: _298  and  _301
REMARK  116  A    between atoms: _304  and  _306
REMARK  117  A    between atoms: _306  and  _307
REMARK  118  A    between atoms: _306  and  _309
REMARK  119  A    between atoms: _309  and  _310
REMARK  120  A    between atoms: _313  and  _315
REMARK  121  A    between atoms: _315  and  _316
REMARK  122  A    between atoms: _315  and  _318
REMARK  123  A    between atoms: _318  and  _319
REMARK  124  A    between atoms: _324  and  _325
REMARK  125  A    between atoms: _327  and  _329
REMARK  126  A    between atoms: _329  and  _330
REMARK  127  A    between atoms: _329  and  _332
REMARK  128  A    between atoms: _332  and  _333
REMARK  129  A    between atoms: _333  and  _334
REMARK  130  A    between atoms: _336  and  _338
REMARK  131  A    between atoms: _338  and  _339
REMARK  132  A    between atoms: _338  and  _341
REMARK  133  A    between atoms: _341  and  _342
REMARK  134  A    between atoms: _347  and  _349
REMARK  135  A    between atoms: _349  and  _350
REMARK  136  A    between atoms: _349  and  _352
REMARK  137  A    between atoms: _352  and  _353
REMARK  138  A    between atoms: _358  and  _359
REMARK  139  A    between atoms: _361  and  _363
REMARK  140  A    between atoms: _363  and  _364
REMARK  141  A    between atoms: _363  and  _366
REMARK  142  A    between atoms: _366  and  _367
REMARK  143  A    between atoms: _372  and  _373
REMARK  144  A    between atoms: _375  and  _377
REMARK  145  A    between atoms: _377  and  _378
REMARK  146  A    between atoms: _377  and  _380
REMARK  147  A    between atoms: _380  and  _381
REMARK  148  A    between atoms: _384  and  _386
REMARK  149  A    between atoms: _386  and  _387
REMARK  150  A    between atoms: _386  and  _389
REMARK  151  A    between atoms: _389  and  _390
REMARK  152  A    between atoms: _395  and  _397
REMARK  153  A    between atoms: _397  and  _398
REMARK  154  A    between atoms: _397  and  _400
REMARK  155  A    between atoms: _400  and  _401
REMARK  156  A    between atoms: _401  and  _402
REMARK  157  A    between atoms: _407  and  _409
REMARK  158  A    between atoms: _409  and  _410
REMARK  159  A    between atoms: _409  and  _412
REMARK  160  A    between atoms: _412  and  _413
REMARK  161  A    between atoms: _416  and  _418
REMARK  162  A    between atoms: _418  and  _419
REMARK  163  A    between atoms: _421  and  _423
REMARK  164  A    between atoms: _423  and  _424
REMARK  165  A    between atoms: _423  and  _426
REMARK  166  A    between atoms: _430  and  _431
REMARK  167  A    between atoms: _436  and  _438
REMARK  168  A    between atoms: _438  and  _439
REMARK  169  A    between atoms: _442  and  _444
REMARK  170  A    between atoms: _444  and  _445
REMARK  171  A    between atoms: _444  and  _447
REMARK  172  A    between atoms: _447  and  _448
REMARK  173  A    between atoms: _454  and  _456
REMARK  174  A    between atoms: _456  and  _457
REMARK  175  A    between atoms: _456  and  _459
REMARK  176  A    between atoms: _459  and  _460
REMARK  177  A    between atoms: _463  and  _465
REMARK  178  A    between atoms: _465  and  _466
REMARK  179  A    between atoms: _465  and  _468
REMARK  180  A    between atoms: _468  and  _469
REMARK  181  A    between atoms: _469  and  _470
REMARK  182  A    between atoms: _473  and  _475
REMARK  183  A    between atoms: _475  and  _476
REMARK  184  A    between atoms: _475  and  _478
REMARK  185  A    between atoms: _478  and  _479
REMARK  186  A    between atoms: _484  and  _486
REMARK  187  A    between atoms: _486  and  _487
REMARK  188  A    between atoms: _489  and  _491
REMARK  189  A    between atoms: _491  and  _492
REMARK  190  A    between atoms: _491  and  _494
REMARK  191  A    between atoms: _494  and  _495
REMARK  192  A    between atoms: _495  and  _496
REMARK  193  A    between atoms: _498  and  _500
REMARK  194  A    between atoms: _500  and  _501
REMARK  195  A    between atoms: _503  and  _505
REMARK  196  A    between atoms: _505  and  _506
REMARK  197  A    between atoms: _505  and  _508
REMARK  198  A    between atoms: _508  and  _509
REMARK  199  A    between atoms: _519  and  _521
REMARK  200  A    between atoms: _521  and  _522
REMARK  201  A    between atoms: _525  and  _527
REMARK  202  A    between atoms: _527  and  _528
REMARK  203  A    between atoms: _527  and  _530
REMARK  204  A    between atoms: _530  and  _531
REMARK  205  A    between atoms: _534  and  _536
REMARK  206  A    between atoms: _536  and  _537
REMARK  207  A    between atoms: _536  and  _539
REMARK  208  A    between atoms: _539  and  _540
REMARK  209  A    between atoms: _545  and  _547
REMARK  210  A    between atoms: _547  and  _548
REMARK  211  A    between atoms: _547  and  _550
REMARK  212  A    between atoms: _550  and  _551
REMARK  213  A    between atoms: _557  and  _559
REMARK  214  A    between atoms: _559  and  _560
REMARK  215  A    between atoms: _559  and  _562
REMARK  216  A    between atoms: _562  and  _563
REMARK  217  A    between atoms: _563  and  _564
REMARK  218  A    between atoms: _567  and  _569
REMARK  219  A    between atoms: _569  and  _570
REMARK  220  A    between atoms: _569  and  _572
REMARK  221  A    between atoms: _572  and  _573
REMARK  222  A    between atoms: _583  and  _585
REMARK  223  A    between atoms: _585  and  _586
REMARK  224  A    between atoms: _585  and  _588
REMARK  225  A    between atoms: _588  and  _589
REMARK  226  A    between atoms: _592  and  _594
REMARK  227  A    between atoms: _594  and  _595
REMARK  228  A    between atoms: _594  and  _597
REMARK  229  A    between atoms: _597  and  _598
REMARK  230  A    between atoms: _600  and  _602
REMARK  231  A    between atoms: _602  and  _603
REMARK  232  A    between atoms: _605  and  _607
REMARK  233  A    between atoms: _607  and  _608
REMARK  234  A    between atoms: _607  and  _610
REMARK  235  A    between atoms: _610  and  _611
REMARK  236  A    between atoms: _614  and  _616
REMARK  237  A    between atoms: _616  and  _617
REMARK  238  A    between atoms: _616  and  _619
REMARK  239  A    between atoms: _619  and  _620
REMARK  240  A    between atoms: _620  and  _621
REMARK  241  A    between atoms: _626  and  _628
REMARK  242  A    between atoms: _628  and  _629
REMARK  243  A    between atoms: _628  and  _631
REMARK  244  A    between atoms: _631  and  _632
REMARK                            x       y       z     vdW  Elec       q    Type
REMARK                         _______ _______ _______ _____ _____    ______ ____
ROOT
ATOM      1  O   HOH     1     -12.801  37.709  23.572  0.00  0.00    +0.000 OA
ENDROOT
TORSDOF 0
REMARK  Name = ../refined-set-2016/3wq6/3wq6_pocket.pdb
REMARK  244 active torsions:
REMARK  status: ('A' for Active; 'I' for Inactive)
REMARK    1  A    between atoms: _1  and  _3
REMARK    2  A    between atoms: _3  and  _4
REMARK    3  A    between atoms: _7  and  _9
REMARK    4  A    between atoms: _9  and  _10
REMARK    5  A    between atoms: _9  and  _12
REMARK    6  A    between atoms: _12  and  _13
REMARK    7  A    between atoms: _15  and  _17
REMARK    8  A    between atoms: _17  and  _18
REMARK    9  A    between atoms: _17  and  _20
REMARK   10  A    between atoms: _20  and  _21
REMARK   11  A    between atoms: _23  and  _25
REMARK   12  A    between atoms: _25  and  _26
REMARK   13  A    between atoms: _29  and  _31
REMARK   14  A    between atoms: _31  and  _32
REMARK   15  A    between atoms: _31  and  _34
REMARK   16  A    between atoms: _34  and  _35
REMARK   17  A    between atoms: _40  and  _41
REMARK   18  A    between atoms: _43  and  _45
REMARK   19  A    between atoms: _45  and  _46
REMARK   20  A    between atoms: _45  and  _48
REMARK   21  A    between atoms: _48  and  _49
REMARK   22  A    between atoms: _49  and  _50
REMARK   23  A    between atoms: _55  and  _57
REMARK   24  A    between atoms: _57  and  _58
REMARK   25  A    between atoms: _57  and  _60
REMARK   26  A    between atoms: _60  and  _61
REMARK   27  A    between atoms: _67  and  _69
REMARK   28  A    between atoms: _69  and  _70
REMARK   29  A    between atoms: _69  and  _72
REMARK   30  A    between atoms: _72  and  _73
REMARK   31  A    between atoms: _83  and  _85
REMARK   32  A    between atoms: _85  and  _86
REMARK   33  A    between atoms: _85  and  _88
REMARK   34  A    between atoms: _88  and  _89
REMARK   35  A    between atoms: _91  and  _93
REMARK   36  A    between atoms: _93  and  _94
REMARK   37  A    between atoms: _93  and  _96
REMARK   38  A    between atoms: _96  and  _97
REMARK   39  A    between atoms: _97  and  _98
REMARK   40  A    between atoms: _98  and  _99
REMARK   41  A    between atoms: _108  and  _110
REMARK   42  A    between atoms: _110  and  _111
REMARK   43  A    between atoms: _110  and  _113
REMARK   44  A    between atoms: _113  and  _114
REMARK   45  A    between atoms: _117  and  _119
REMARK   46  A    between atoms: _119  and  _120
REMARK   47  A    between atoms: _119  and  _122
REMARK   48  A    between atoms: _122  and  _123
REMARK   49  A    between atoms: _128  and  _130
REMARK   50  A    between atoms: _130  and  _131
REMARK   51  A    between atoms: _130  and  _133
REMARK   52  A    between atoms: _133  and  _134
REMARK   53  A    between atoms: _144  and  _146
REMARK   54  A    between atoms: _146  and  _147
REMARK   55  A    between atoms: _146  and  _149
REMARK   56  A    between atoms: _149  and  _150
REMARK   57  A    between atoms: _155  and  _157
REMARK   58  A    between atoms: _157  and  _158
REMARK   59  A    between atoms: _157  and  _160
REMARK   60  A    between atoms: _160  and  _161
REMARK   61  A    between atoms: _161  and  _162
REMARK   62  A    between atoms: _165  and  _167
REMARK   63  A    between atoms: _167  and  _168
REMARK   64  A    between atoms: _167  and  _170
REMARK   65  A    between atoms: _170  and  _171
REMARK   66  A    between atoms: _181  and  _183
REMARK   67  A    between atoms: _183  and  _184
REMARK   68  A    between atoms: _183  and  _186
REMARK   69  A    between atoms: _186  and  _187
REMARK   70  A    between atoms: _189  and  _191
REMARK   71  A    between atoms: _191  and  _192
REMARK   72  A    between atoms: _191  and  _194
REMARK   73  A    between atoms: _194  and  _195
REMARK   74  A    between atoms: _200  and  _201
REMARK   75  A    between atoms: _203  and  _205
REMARK   76  A    between atoms: _205  and  _206
REMARK   77  A    between atoms: _205  and  _208
REMARK   78  A    between atoms: _208  and  _209
REMARK   79  A    between atoms: _211  and  _213
REMARK   80  A    between atoms: _213  and  _214
REMARK   81  A    between atoms: _213  and  _216
REMARK   82  A    between atoms: _216  and  _217
REMARK   83  A    between atoms: _222  and  _223
REMARK   84  A    between atoms: _225  and  _227
REMARK   85  A    between atoms: _227  and  _228
REMARK   86  A    between atoms: _230  and  _232
REMARK   87  A    between atoms: _232  and  _233
REMARK   88  A    between atoms: _235  and  _237
REMARK   89  A    between atoms: _237  and  _238
REMARK   90  A    between atoms: _237  and  _240
REMARK   91  A    between atoms: _240  and  _241
REMARK   92  A    between atoms: _246  and  _247
REMARK   93  A    between atoms: _249  and  _251
REMARK   94  A    between atoms: _251  and  _252
REMARK   95  A    between atoms: _251  and  _254
REMARK   96  A    between atoms: _254  and  _255
REMARK   97  A    between atoms: _258  and  _260
REMARK   98  A    between atoms: _260  and  _261
REMARK   99  A    between atoms: _264  and  _266
REMARK  100  A    between atoms: _266  and  _267
REMARK  101  A    between atoms: _269  and  _271
REMARK  102  A    between atoms: _271  and  _272
REMARK  103  A    between atoms: _271  and  _274
REMARK  104  A    between atoms: _274  and  _275
REMARK  105  A    between atoms: _278  and  _280
REMARK  106  A    between atoms: _280  and  _281
REMARK  107  A    between atoms: _280  and  _283
REMARK  108  A    between atoms: _283  and  _284
REMARK  109  A    between atoms: _287  and  _289
REMARK  110  A    between atoms: _289  and  _290
REMARK  111  A    between atoms: _289  and  _292
REMARK  112  A    between atoms: _292  and  _293
REMARK  113  A    between atoms: _296  and  _298
REMARK  114  A    between atoms: _298  and  _299
REMARK  115  A    between atoms: _298  and  _301
REMARK  116  A    between atoms: _304  and  _306
REMARK  117  A    between atoms: _306  and  _307
REMARK  118  A    between atoms: _306  and  _309
REMARK  119  A    between atoms: _309  and  _310
REMARK  120  A    between atoms: _313  and  _315
REMARK  121  A    between atoms: _315  and  _316
REMARK  122  A    between atoms: _315  and  _318
REMARK  123  A    between atoms: _318  and  _319
REMARK  124  A    between atoms: _324  and  _325
REMARK  125  A    between atoms: _327  and  _329
REMARK  126  A    between atoms: _329  and  _330
REMARK  127  A    between atoms: _329  and  _332
REMARK  128  A    between atoms: _332  and  _333
REMARK  129  A    between atoms: _333  and  _334
REMARK  130  A    between atoms: _336  and  _338
REMARK  131  A    between atoms: _338  and  _339
REMARK  132  A    between atoms: _338  and  _341
REMARK  133  A    between atoms: _341  and  _342
REMARK  134  A    between atoms: _347  and  _349
REMARK  135  A    between atoms: _349  and  _350
REMARK  136  A    between atoms: _349  and  _352
REMARK  137  A    between atoms: _352  and  _353
REMARK  138  A    between atoms: _358  and  _359
REMARK  139  A    between atoms: _361  and  _363
REMARK  140  A    between atoms: _363  and  _364
REMARK  141  A    between atoms: _363  and  _366
REMARK  142  A    between atoms: _366  and  _367
REMARK  143  A    between atoms: _372  and  _373
REMARK  144  A    between atoms: _375  and  _377
REMARK  145  A    between atoms: _377  and  _378
REMARK  146  A    between atoms: _377  and  _380
REMARK  147  A    between atoms: _380  and  _381
REMARK  148  A    between atoms: _384  and  _386
REMARK  149  A    between atoms: _386  and  _387
REMARK  150  A    between atoms: _386  and  _389
REMARK  151  A    between atoms: _389  and  _390
REMARK  152  A    between atoms: _395  and  _397
REMARK  153  A    between atoms: _397  and  _398
REMARK  154  A    between atoms: _397  and  _400
REMARK  155  A    between atoms: _400  and  _401
REMARK  156  A    between atoms: _401  and  _402
REMARK  157  A    between atoms: _407  and  _409
REMARK  158  A    between atoms: _409  and  _410
REMARK  159  A    between atoms: _409  and  _412
REMARK  160  A    between atoms: _412  and  _413
REMARK  161  A    between atoms: _416  and  _418
REMARK  162  A    between atoms: _418  and  _419
REMARK  163  A    between atoms: _421  and  _423
REMARK  164  A    between atoms: _423  and  _424
REMARK  165  A    between atoms: _423  and  _426
REMARK  166  A    between atoms: _430  and  _431
REMARK  167  A    between atoms: _436  and  _438
REMARK  168  A    between atoms: _438  and  _439
REMARK  169  A    between atoms: _442  and  _444
REMARK  170  A    between atoms: _444  and  _445
REMARK  171  A    between atoms: _444  and  _447
REMARK  172  A    between atoms: _447  and  _448
REMARK  173  A    between atoms: _454  and  _456
REMARK  174  A    between atoms: _456  and  _457
REMARK  175  A    between atoms: _456  and  _459
REMARK  176  A    between atoms: _459  and  _460
REMARK  177  A    between atoms: _463  and  _465
REMARK  178  A    between atoms: _465  and  _466
REMARK  179  A    between atoms: _465  and  _468
REMARK  180  A    between atoms: _468  and  _469
REMARK  181  A    between atoms: _469  and  _470
REMARK  182  A    between atoms: _473  and  _475
REMARK  183  A    between atoms: _475  and  _476
REMARK  184  A    between atoms: _475  and  _478
REMARK  185  A    between atoms: _478  and  _479
REMARK  186  A    between atoms: _484  and  _486
REMARK  187  A    between atoms: _486  and  _487
REMARK  188  A    between atoms: _489  and  _491
REMARK  189  A    between atoms: _491  and  _492
REMARK  190  A    between atoms: _491  and  _494
REMARK  191  A    between atoms: _494  and  _495
REMARK  192  A    between atoms: _495  and  _496
REMARK  193  A    between atoms: _498  and  _500
REMARK  194  A    between atoms: _500  and  _501
REMARK  195  A    between atoms: _503  and  _505
REMARK  196  A    between atoms: _505  and  _506
REMARK  197  A    between atoms: _505  and  _508
REMARK  198  A    between atoms: _508  and  _509
REMARK  199  A    between atoms: _519  and  _521
REMARK  200  A    between atoms: _521  and  _522
REMARK  201  A    between atoms: _525  and  _527
REMARK  202  A    between atoms: _527  and  _528
REMARK  203  A    between atoms: _527  and  _530
REMARK  204  A    between atoms: _530  and  _531
REMARK  205  A    between atoms: _534  and  _536
REMARK  206  A    between atoms: _536  and  _537
REMARK  207  A    between atoms: _536  and  _539
REMARK  208  A    between atoms: _539  and  _540
REMARK  209  A    between atoms: _545  and  _547
REMARK  210  A    between atoms: _547  and  _548
REMARK  211  A    between atoms: _547  and  _550
REMARK  212  A    between atoms: _550  and  _551
REMARK  213  A    between atoms: _557  and  _559
REMARK  214  A    between atoms: _559  and  _560
REMARK  215  A    between atoms: _559  and  _562
REMARK  216  A    between atoms: _562  and  _563
REMARK  217  A    between atoms: _563  and  _564
REMARK  218  A    between atoms: _567  and  _569
REMARK  219  A    between atoms: _569  and  _570
REMARK  220  A    between atoms: _569  and  _572
REMARK  221  A    between atoms: _572  and  _573
REMARK  222  A    between atoms: _583  and  _585
REMARK  223  A    between atoms: _585  and  _586
REMARK  224  A    between atoms: _585  and  _588
REMARK  225  A    between atoms: _588  and  _589
REMARK  226  A    between atoms: _592  and  _594
REMARK  227  A    between atoms: _594  and  _595
REMARK  228  A    between atoms: _594  and  _597
REMARK  229  A    between atoms: _597  and  _598
REMARK  230  A    between atoms: _600  and  _602
REMARK  231  A    between atoms: _602  and  _603
REMARK  232  A    between atoms: _605  and  _607
REMARK  233  A    between atoms: _607  and  _608
REMARK  234  A    between atoms: _607  and  _610
REMARK  235  A    between atoms: _610  and  _611
REMARK  236  A    between atoms: _614  and  _616
REMARK  237  A    between atoms: _616  and  _617
REMARK  238  A    between atoms: _616  and  _619
REMARK  239  A    between atoms: _619  and  _620
REMARK  240  A    between atoms: _620  and  _621
REMARK  241  A    between atoms: _626  and  _628
REMARK  242  A    between atoms: _628  and  _629
REMARK  243  A    between atoms: _628  and  _631
REMARK  244  A    between atoms: _631  and  _632
REMARK                            x       y       z     vdW  Elec       q    Type
REMARK                         _______ _______ _______ _____ _____    ______ ____
ROOT
ATOM      1  O   HOH     1     -10.521  37.760  21.530  0.00  0.00    +0.000 OA
ENDROOT
TORSDOF 0
REMARK  Name = ../refined-set-2016/3wq6/3wq6_pocket.pdb
REMARK  244 active torsions:
REMARK  status: ('A' for Active; 'I' for Inactive)
REMARK    1  A    between atoms: _1  and  _3
REMARK    2  A    between atoms: _3  and  _4
REMARK    3  A    between atoms: _7  and  _9
REMARK    4  A    between atoms: _9  and  _10
REMARK    5  A    between atoms: _9  and  _12
REMARK    6  A    between atoms: _12  and  _13
REMARK    7  A    between atoms: _15  and  _17
REMARK    8  A    between atoms: _17  and  _18
REMARK    9  A    between atoms: _17  and  _20
REMARK   10  A    between atoms: _20  and  _21
REMARK   11  A    between atoms: _23  and  _25
REMARK   12  A    between atoms: _25  and  _26
REMARK   13  A    between atoms: _29  and  _31
REMARK   14  A    between atoms: _31  and  _32
REMARK   15  A    between atoms: _31  and  _34
REMARK   16  A    between atoms: _34  and  _35
REMARK   17  A    between atoms: _40  and  _41
REMARK   18  A    between atoms: _43  and  _45
REMARK   19  A    between atoms: _45  and  _46
REMARK   20  A    between atoms: _45  and  _48
REMARK   21  A    between atoms: _48  and  _49
REMARK   22  A    between atoms: _49  and  _50
REMARK   23  A    between atoms: _55  and  _57
REMARK   24  A    between atoms: _57  and  _58
REMARK   25  A    between atoms: _57  and  _60
REMARK   26  A    between atoms: _60  and  _61
REMARK   27  A    between atoms: _67  and  _69
REMARK   28  A    between atoms: _69  and  _70
REMARK   29  A    between atoms: _69  and  _72
REMARK   30  A    between atoms: _72  and  _73
REMARK   31  A    between atoms: _83  and  _85
REMARK   32  A    between atoms: _85  and  _86
REMARK   33  A    between atoms: _85  and  _88
REMARK   34  A    between atoms: _88  and  _89
REMARK   35  A    between atoms: _91  and  _93
REMARK   36  A    between atoms: _93  and  _94
REMARK   37  A    between atoms: _93  and  _96
REMARK   38  A    between atoms: _96  and  _97
REMARK   39  A    between atoms: _97  and  _98
REMARK   40  A    between atoms: _98  and  _99
REMARK   41  A    between atoms: _108  and  _110
REMARK   42  A    between atoms: _110  and  _111
REMARK   43  A    between atoms: _110  and  _113
REMARK   44  A    between atoms: _113  and  _114
REMARK   45  A    between atoms: _117  and  _119
REMARK   46  A    between atoms: _119  and  _120
REMARK   47  A    between atoms: _119  and  _122
REMARK   48  A    between atoms: _122  and  _123
REMARK   49  A    between atoms: _128  and  _130
REMARK   50  A    between atoms: _130  and  _131
REMARK   51  A    between atoms: _130  and  _133
REMARK   52  A    between atoms: _133  and  _134
REMARK   53  A    between atoms: _144  and  _146
REMARK   54  A    between atoms: _146  and  _147
REMARK   55  A    between atoms: _146  and  _149
REMARK   56  A    between atoms: _149  and  _150
REMARK   57  A    between atoms: _155  and  _157
REMARK   58  A    between atoms: _157  and  _158
REMARK   59  A    between atoms: _157  and  _160
REMARK   60  A    between atoms: _160  and  _161
REMARK   61  A    between atoms: _161  and  _162
REMARK   62  A    between atoms: _165  and  _167
REMARK   63  A    between atoms: _167  and  _168
REMARK   64  A    between atoms: _167  and  _170
REMARK   65  A    between atoms: _170  and  _171
REMARK   66  A    between atoms: _181  and  _183
REMARK   67  A    between atoms: _183  and  _184
REMARK   68  A    between atoms: _183  and  _186
REMARK   69  A    between atoms: _186  and  _187
REMARK   70  A    between atoms: _189  and  _191
REMARK   71  A    between atoms: _191  and  _192
REMARK   72  A    between atoms: _191  and  _194
REMARK   73  A    between atoms: _194  and  _195
REMARK   74  A    between atoms: _200  and  _201
REMARK   75  A    between atoms: _203  and  _205
REMARK   76  A    between atoms: _205  and  _206
REMARK   77  A    between atoms: _205  and  _208
REMARK   78  A    between atoms: _208  and  _209
REMARK   79  A    between atoms: _211  and  _213
REMARK   80  A    between atoms: _213  and  _214
REMARK   81  A    between atoms: _213  and  _216
REMARK   82  A    between atoms: _216  and  _217
REMARK   83  A    between atoms: _222  and  _223
REMARK   84  A    between atoms: _225  and  _227
REMARK   85  A    between atoms: _227  and  _228
REMARK   86  A    between atoms: _230  and  _232
REMARK   87  A    between atoms: _232  and  _233
REMARK   88  A    between atoms: _235  and  _237
REMARK   89  A    between atoms: _237  and  _238
REMARK   90  A    between atoms: _237  and  _240
REMARK   91  A    between atoms: _240  and  _241
REMARK   92  A    between atoms: _246  and  _247
REMARK   93  A    between atoms: _249  and  _251
REMARK   94  A    between atoms: _251  and  _252
REMARK   95  A    between atoms: _251  and  _254
REMARK   96  A    between atoms: _254  and  _255
REMARK   97  A    between atoms: _258  and  _260
REMARK   98  A    between atoms: _260  and  _261
REMARK   99  A    between atoms: _264  and  _266
REMARK  100  A    between atoms: _266  and  _267
REMARK  101  A    between atoms: _269  and  _271
REMARK  102  A    between atoms: _271  and  _272
REMARK  103  A    between atoms: _271  and  _274
REMARK  104  A    between atoms: _274  and  _275
REMARK  105  A    between atoms: _278  and  _280
REMARK  106  A    between atoms: _280  and  _281
REMARK  107  A    between atoms: _280  and  _283
REMARK  108  A    between atoms: _283  and  _284
REMARK  109  A    between atoms: _287  and  _289
REMARK  110  A    between atoms: _289  and  _290
REMARK  111  A    between atoms: _289  and  _292
REMARK  112  A    between atoms: _292  and  _293
REMARK  113  A    between atoms: _296  and  _298
REMARK  114  A    between atoms: _298  and  _299
REMARK  115  A    between atoms: _298  and  _301
REMARK  116  A    between atoms: _304  and  _306
REMARK  117  A    between atoms: _306  and  _307
REMARK  118  A    between atoms: _306  and  _309
REMARK  119  A    between atoms: _309  and  _310
REMARK  120  A    between atoms: _313  and  _315
REMARK  121  A    between atoms: _315  and  _316
REMARK  122  A    between atoms: _315  and  _318
REMARK  123  A    between atoms: _318  and  _319
REMARK  124  A    between atoms: _324  and  _325
REMARK  125  A    between atoms: _327  and  _329
REMARK  126  A    between atoms: _329  and  _330
REMARK  127  A    between atoms: _329  and  _332
REMARK  128  A    between atoms: _332  and  _333
REMARK  129  A    between atoms: _333  and  _334
REMARK  130  A    between atoms: _336  and  _338
REMARK  131  A    between atoms: _338  and  _339
REMARK  132  A    between atoms: _338  and  _341
REMARK  133  A    between atoms: _341  and  _342
REMARK  134  A    between atoms: _347  and  _349
REMARK  135  A    between atoms: _349  and  _350
REMARK  136  A    between atoms: _349  and  _352
REMARK  137  A    between atoms: _352  and  _353
REMARK  138  A    between atoms: _358  and  _359
REMARK  139  A    between atoms: _361  and  _363
REMARK  140  A    between atoms: _363  and  _364
REMARK  141  A    between atoms: _363  and  _366
REMARK  142  A    between atoms: _366  and  _367
REMARK  143  A    between atoms: _372  and  _373
REMARK  144  A    between atoms: _375  and  _377
REMARK  145  A    between atoms: _377  and  _378
REMARK  146  A    between atoms: _377  and  _380
REMARK  147  A    between atoms: _380  and  _381
REMARK  148  A    between atoms: _384  and  _386
REMARK  149  A    between atoms: _386  and  _387
REMARK  150  A    between atoms: _386  and  _389
REMARK  151  A    between atoms: _389  and  _390
REMARK  152  A    between atoms: _395  and  _397
REMARK  153  A    between atoms: _397  and  _398
REMARK  154  A    between atoms: _397  and  _400
REMARK  155  A    between atoms: _400  and  _401
REMARK  156  A    between atoms: _401  and  _402
REMARK  157  A    between atoms: _407  and  _409
REMARK  158  A    between atoms: _409  and  _410
REMARK  159  A    between atoms: _409  and  _412
REMARK  160  A    between atoms: _412  and  _413
REMARK  161  A    between atoms: _416  and  _418
REMARK  162  A    between atoms: _418  and  _419
REMARK  163  A    between atoms: _421  and  _423
REMARK  164  A    between atoms: _423  and  _424
REMARK  165  A    between atoms: _423  and  _426
REMARK  166  A    between atoms: _430  and  _431
REMARK  167  A    between atoms: _436  and  _438
REMARK  168  A    between atoms: _438  and  _439
REMARK  169  A    between atoms: _442  and  _444
REMARK  170  A    between atoms: _444  and  _445
REMARK  171  A    between atoms: _444  and  _447
REMARK  172  A    between atoms: _447  and  _448
REMARK  173  A    between atoms: _454  and  _456
REMARK  174  A    between atoms: _456  and  _457
REMARK  175  A    between atoms: _456  and  _459
REMARK  176  A    between atoms: _459  and  _460
REMARK  177  A    between atoms: _463  and  _465
REMARK  178  A    between atoms: _465  and  _466
REMARK  179  A    between atoms: _465  and  _468
REMARK  180  A    between atoms: _468  and  _469
REMARK  181  A    between atoms: _469  and  _470
REMARK  182  A    between atoms: _473  and  _475
REMARK  183  A    between atoms: _475  and  _476
REMARK  184  A    between atoms: _475  and  _478
REMARK  185  A    between atoms: _478  and  _479
REMARK  186  A    between atoms: _484  and  _486
REMARK  187  A    between atoms: _486  and  _487
REMARK  188  A    between atoms: _489  and  _491
REMARK  189  A    between atoms: _491  and  _492
REMARK  190  A    between atoms: _491  and  _494
REMARK  191  A    between atoms: _494  and  _495
REMARK  192  A    between atoms: _495  and  _496
REMARK  193  A    between atoms: _498  and  _500
REMARK  194  A    between atoms: _500  and  _501
REMARK  195  A    between atoms: _503  and  _505
REMARK  196  A    between atoms: _505  and  _506
REMARK  197  A    between atoms: _505  and  _508
REMARK  198  A    between atoms: _508  and  _509
REMARK  199  A    between atoms: _519  and  _521
REMARK  200  A    between atoms: _521  and  _522
REMARK  201  A    between atoms: _525  and  _527
REMARK  202  A    between atoms: _527  and  _528
REMARK  203  A    between atoms: _527  and  _530
REMARK  204  A    between atoms: _530  and  _531
REMARK  205  A    between atoms: _534  and  _536
REMARK  206  A    between atoms: _536  and  _537
REMARK  207  A    between atoms: _536  and  _539
REMARK  208  A    between atoms: _539  and  _540
REMARK  209  A    between atoms: _545  and  _547
REMARK  210  A    between atoms: _547  and  _548
REMARK  211  A    between atoms: _547  and  _550
REMARK  212  A    between atoms: _550  and  _551
REMARK  213  A    between atoms: _557  and  _559
REMARK  214  A    between atoms: _559  and  _560
REMARK  215  A    between atoms: _559  and  _562
REMARK  216  A    between atoms: _562  and  _563
REMARK  217  A    between atoms: _563  and  _564
REMARK  218  A    between atoms: _567  and  _569
REMARK  219  A    between atoms: _569  and  _570
REMARK  220  A    between atoms: _569  and  _572
REMARK  221  A    between atoms: _572  and  _573
REMARK  222  A    between atoms: _583  and  _585
REMARK  223  A    between atoms: _585  and  _586
REMARK  224  A    between atoms: _585  and  _588
REMARK  225  A    between atoms: _588  and  _589
REMARK  226  A    between atoms: _592  and  _594
REMARK  227  A    between atoms: _594  and  _595
REMARK  228  A    between atoms: _594  and  _597
REMARK  229  A    between atoms: _597  and  _598
REMARK  230  A    between atoms: _600  and  _602
REMARK  231  A    between atoms: _602  and  _603
REMARK  232  A    between atoms: _605  and  _607
REMARK  233  A    between atoms: _607  and  _608
REMARK  234  A    between atoms: _607  and  _610
REMARK  235  A    between atoms: _610  and  _611
REMARK  236  A    between atoms: _614  and  _616
REMARK  237  A    between atoms: _616  and  _617
REMARK  238  A    between atoms: _616  and  _619
REMARK  239  A    between atoms: _619  and  _620
REMARK  240  A    between atoms: _620  and  _621
REMARK  241  A    between atoms: _626  and  _628
REMARK  242  A    between atoms: _628  and  _629
REMARK  243  A    between atoms: _628  and  _631
REMARK  244  A    between atoms: _631  and  _632
REMARK                            x       y       z     vdW  Elec       q    Type
REMARK                         _______ _______ _______ _____ _____    ______ ____
ROOT
ATOM      1  O   HOH     1     -10.212  32.412  18.446  0.00  0.00    +0.000 OA
ENDROOT
TORSDOF 0
REMARK  Name = ../refined-set-2016/3wq6/3wq6_pocket.pdb
REMARK  244 active torsions:
REMARK  status: ('A' for Active; 'I' for Inactive)
REMARK    1  A    between atoms: _1  and  _3
REMARK    2  A    between atoms: _3  and  _4
REMARK    3  A    between atoms: _7  and  _9
REMARK    4  A    between atoms: _9  and  _10
REMARK    5  A    between atoms: _9  and  _12
REMARK    6  A    between atoms: _12  and  _13
REMARK    7  A    between atoms: _15  and  _17
REMARK    8  A    between atoms: _17  and  _18
REMARK    9  A    between atoms: _17  and  _20
REMARK   10  A    between atoms: _20  and  _21
REMARK   11  A    between atoms: _23  and  _25
REMARK   12  A    between atoms: _25  and  _26
REMARK   13  A    between atoms: _29  and  _31
REMARK   14  A    between atoms: _31  and  _32
REMARK   15  A    between atoms: _31  and  _34
REMARK   16  A    between atoms: _34  and  _35
REMARK   17  A    between atoms: _40  and  _41
REMARK   18  A    between atoms: _43  and  _45
REMARK   19  A    between atoms: _45  and  _46
REMARK   20  A    between atoms: _45  and  _48
REMARK   21  A    between atoms: _48  and  _49
REMARK   22  A    between atoms: _49  and  _50
REMARK   23  A    between atoms: _55  and  _57
REMARK   24  A    between atoms: _57  and  _58
REMARK   25  A    between atoms: _57  and  _60
REMARK   26  A    between atoms: _60  and  _61
REMARK   27  A    between atoms: _67  and  _69
REMARK   28  A    between atoms: _69  and  _70
REMARK   29  A    between atoms: _69  and  _72
REMARK   30  A    between atoms: _72  and  _73
REMARK   31  A    between atoms: _83  and  _85
REMARK   32  A    between atoms: _85  and  _86
REMARK   33  A    between atoms: _85  and  _88
REMARK   34  A    between atoms: _88  and  _89
REMARK   35  A    between atoms: _91  and  _93
REMARK   36  A    between atoms: _93  and  _94
REMARK   37  A    between atoms: _93  and  _96
REMARK   38  A    between atoms: _96  and  _97
REMARK   39  A    between atoms: _97  and  _98
REMARK   40  A    between atoms: _98  and  _99
REMARK   41  A    between atoms: _108  and  _110
REMARK   42  A    between atoms: _110  and  _111
REMARK   43  A    between atoms: _110  and  _113
REMARK   44  A    between atoms: _113  and  _114
REMARK   45  A    between atoms: _117  and  _119
REMARK   46  A    between atoms: _119  and  _120
REMARK   47  A    between atoms: _119  and  _122
REMARK   48  A    between atoms: _122  and  _123
REMARK   49  A    between atoms: _128  and  _130
REMARK   50  A    between atoms: _130  and  _131
REMARK   51  A    between atoms: _130  and  _133
REMARK   52  A    between atoms: _133  and  _134
REMARK   53  A    between atoms: _144  and  _146
REMARK   54  A    between atoms: _146  and  _147
REMARK   55  A    between atoms: _146  and  _149
REMARK   56  A    between atoms: _149  and  _150
REMARK   57  A    between atoms: _155  and  _157
REMARK   58  A    between atoms: _157  and  _158
REMARK   59  A    between atoms: _157  and  _160
REMARK   60  A    between atoms: _160  and  _161
REMARK   61  A    between atoms: _161  and  _162
REMARK   62  A    between atoms: _165  and  _167
REMARK   63  A    between atoms: _167  and  _168
REMARK   64  A    between atoms: _167  and  _170
REMARK   65  A    between atoms: _170  and  _171
REMARK   66  A    between atoms: _181  and  _183
REMARK   67  A    between atoms: _183  and  _184
REMARK   68  A    between atoms: _183  and  _186
REMARK   69  A    between atoms: _186  and  _187
REMARK   70  A    between atoms: _189  and  _191
REMARK   71  A    between atoms: _191  and  _192
REMARK   72  A    between atoms: _191  and  _194
REMARK   73  A    between atoms: _194  and  _195
REMARK   74  A    between atoms: _200  and  _201
REMARK   75  A    between atoms: _203  and  _205
REMARK   76  A    between atoms: _205  and  _206
REMARK   77  A    between atoms: _205  and  _208
REMARK   78  A    between atoms: _208  and  _209
REMARK   79  A    between atoms: _211  and  _213
REMARK   80  A    between atoms: _213  and  _214
REMARK   81  A    between atoms: _213  and  _216
REMARK   82  A    between atoms: _216  and  _217
REMARK   83  A    between atoms: _222  and  _223
REMARK   84  A    between atoms: _225  and  _227
REMARK   85  A    between atoms: _227  and  _228
REMARK   86  A    between atoms: _230  and  _232
REMARK   87  A    between atoms: _232  and  _233
REMARK   88  A    between atoms: _235  and  _237
REMARK   89  A    between atoms: _237  and  _238
REMARK   90  A    between atoms: _237  and  _240
REMARK   91  A    between atoms: _240  and  _241
REMARK   92  A    between atoms: _246  and  _247
REMARK   93  A    between atoms: _249  and  _251
REMARK   94  A    between atoms: _251  and  _252
REMARK   95  A    between atoms: _251  and  _254
REMARK   96  A    between atoms: _254  and  _255
REMARK   97  A    between atoms: _258  and  _260
REMARK   98  A    between atoms: _260  and  _261
REMARK   99  A    between atoms: _264  and  _266
REMARK  100  A    between atoms: _266  and  _267
REMARK  101  A    between atoms: _269  and  _271
REMARK  102  A    between atoms: _271  and  _272
REMARK  103  A    between atoms: _271  and  _274
REMARK  104  A    between atoms: _274  and  _275
REMARK  105  A    between atoms: _278  and  _280
REMARK  106  A    between atoms: _280  and  _281
REMARK  107  A    between atoms: _280  and  _283
REMARK  108  A    between atoms: _283  and  _284
REMARK  109  A    between atoms: _287  and  _289
REMARK  110  A    between atoms: _289  and  _290
REMARK  111  A    between atoms: _289  and  _292
REMARK  112  A    between atoms: _292  and  _293
REMARK  113  A    between atoms: _296  and  _298
REMARK  114  A    between atoms: _298  and  _299
REMARK  115  A    between atoms: _298  and  _301
REMARK  116  A    between atoms: _304  and  _306
REMARK  117  A    between atoms: _306  and  _307
REMARK  118  A    between atoms: _306  and  _309
REMARK  119  A    between atoms: _309  and  _310
REMARK  120  A    between atoms: _313  and  _315
REMARK  121  A    between atoms: _315  and  _316
REMARK  122  A    between atoms: _315  and  _318
REMARK  123  A    between atoms: _318  and  _319
REMARK  124  A    between atoms: _324  and  _325
REMARK  125  A    between atoms: _327  and  _329
REMARK  126  A    between atoms: _329  and  _330
REMARK  127  A    between atoms: _329  and  _332
REMARK  128  A    between atoms: _332  and  _333
REMARK  129  A    between atoms: _333  and  _334
REMARK  130  A    between atoms: _336  and  _338
REMARK  131  A    between atoms: _338  and  _339
REMARK  132  A    between atoms: _338  and  _341
REMARK  133  A    between atoms: _341  and  _342
REMARK  134  A    between atoms: _347  and  _349
REMARK  135  A    between atoms: _349  and  _350
REMARK  136  A    between atoms: _349  and  _352
REMARK  137  A    between atoms: _352  and  _353
REMARK  138  A    between atoms: _358  and  _359
REMARK  139  A    between atoms: _361  and  _363
REMARK  140  A    between atoms: _363  and  _364
REMARK  141  A    between atoms: _363  and  _366
REMARK  142  A    between atoms: _366  and  _367
REMARK  143  A    between atoms: _372  and  _373
REMARK  144  A    between atoms: _375  and  _377
REMARK  145  A    between atoms: _377  and  _378
REMARK  146  A    between atoms: _377  and  _380
REMARK  147  A    between atoms: _380  and  _381
REMARK  148  A    between atoms: _384  and  _386
REMARK  149  A    between atoms: _386  and  _387
REMARK  150  A    between atoms: _386  and  _389
REMARK  151  A    between atoms: _389  and  _390
REMARK  152  A    between atoms: _395  and  _397
REMARK  153  A    between atoms: _397  and  _398
REMARK  154  A    between atoms: _397  and  _400
REMARK  155  A    between atoms: _400  and  _401
REMARK  156  A    between atoms: _401  and  _402
REMARK  157  A    between atoms: _407  and  _409
REMARK  158  A    between atoms: _409  and  _410
REMARK  159  A    between atoms: _409  and  _412
REMARK  160  A    between atoms: _412  and  _413
REMARK  161  A    between atoms: _416  and  _418
REMARK  162  A    between atoms: _418  and  _419
REMARK  163  A    between atoms: _421  and  _423
REMARK  164  A    between atoms: _423  and  _424
REMARK  165  A    between atoms: _423  and  _426
REMARK  166  A    between atoms: _430  and  _431
REMARK  167  A    between atoms: _436  and  _438
REMARK  168  A    between atoms: _438  and  _439
REMARK  169  A    between atoms: _442  and  _444
REMARK  170  A    between atoms: _444  and  _445
REMARK  171  A    between atoms: _444  and  _447
REMARK  172  A    between atoms: _447  and  _448
REMARK  173  A    between atoms: _454  and  _456
REMARK  174  A    between atoms: _456  and  _457
REMARK  175  A    between atoms: _456  and  _459
REMARK  176  A    between atoms: _459  and  _460
REMARK  177  A    between atoms: _463  and  _465
REMARK  178  A    between atoms: _465  and  _466
REMARK  179  A    between atoms: _465  and  _468
REMARK  180  A    between atoms: _468  and  _469
REMARK  181  A    between atoms: _469  and  _470
REMARK  182  A    between atoms: _473  and  _475
REMARK  183  A    between atoms: _475  and  _476
REMARK  184  A    between atoms: _475  and  _478
REMARK  185  A    between atoms: _478  and  _479
REMARK  186  A    between atoms: _484  and  _486
REMARK  187  A    between atoms: _486  and  _487
REMARK  188  A    between atoms: _489  and  _491
REMARK  189  A    between atoms: _491  and  _492
REMARK  190  A    between atoms: _491  and  _494
REMARK  191  A    between atoms: _494  and  _495
REMARK  192  A    between atoms: _495  and  _496
REMARK  193  A    between atoms: _498  and  _500
REMARK  194  A    between atoms: _500  and  _501
REMARK  195  A    between atoms: _503  and  _505
REMARK  196  A    between atoms: _505  and  _506
REMARK  197  A    between atoms: _505  and  _508
REMARK  198  A    between atoms: _508  and  _509
REMARK  199  A    between atoms: _519  and  _521
REMARK  200  A    between atoms: _521  and  _522
REMARK  201  A    between atoms: _525  and  _527
REMARK  202  A    between atoms: _527  and  _528
REMARK  203  A    between atoms: _527  and  _530
REMARK  204  A    between atoms: _530  and  _531
REMARK  205  A    between atoms: _534  and  _536
REMARK  206  A    between atoms: _536  and  _537
REMARK  207  A    between atoms: _536  and  _539
REMARK  208  A    between atoms: _539  and  _540
REMARK  209  A    between atoms: _545  and  _547
REMARK  210  A    between atoms: _547  and  _548
REMARK  211  A    between atoms: _547  and  _550
REMARK  212  A    between atoms: _550  and  _551
REMARK  213  A    between atoms: _557  and  _559
REMARK  214  A    between atoms: _559  and  _560
REMARK  215  A    between atoms: _559  and  _562
REMARK  216  A    between atoms: _562  and  _563
REMARK  217  A    between atoms: _563  and  _564
REMARK  218  A    between atoms: _567  and  _569
REMARK  219  A    between atoms: _569  and  _570
REMARK  220  A    between atoms: _569  and  _572
REMARK  221  A    between atoms: _572  and  _573
REMARK  222  A    between atoms: _583  and  _585
REMARK  223  A    between atoms: _585  and  _586
REMARK  224  A    between atoms: _585  and  _588
REMARK  225  A    between atoms: _588  and  _589
REMARK  226  A    between atoms: _592  and  _594
REMARK  227  A    between atoms: _594  and  _595
REMARK  228  A    between atoms: _594  and  _597
REMARK  229  A    between atoms: _597  and  _598
REMARK  230  A    between atoms: _600  and  _602
REMARK  231  A    between atoms: _602  and  _603
REMARK  232  A    between atoms: _605  and  _607
REMARK  233  A    between atoms: _607  and  _608
REMARK  234  A    between atoms: _607  and  _610
REMARK  235  A    between atoms: _610  and  _611
REMARK  236  A    between atoms: _614  and  _616
REMARK  237  A    between atoms: _616  and  _617
REMARK  238  A    between atoms: _616  and  _619
REMARK  239  A    between atoms: _619  and  _620
REMARK  240  A    between atoms: _620  and  _621
REMARK  241  A    between atoms: _626  and  _628
REMARK  242  A    between atoms: _628  and  _629
REMARK  243  A    between atoms: _628  and  _631
REMARK  244  A    between atoms: _631  and  _632
REMARK                            x       y       z     vdW  Elec       q    Type
REMARK                         _______ _______ _______ _____ _____    ______ ____
ROOT
ATOM      1  O   HOH     1     -13.557  34.376  24.370  0.00  0.00    +0.000 OA
ENDROOT
TORSDOF 0
REMARK  Name = ../refined-set-2016/3wq6/3wq6_pocket.pdb
REMARK  244 active torsions:
REMARK  status: ('A' for Active; 'I' for Inactive)
REMARK    1  A    between atoms: _1  and  _3
REMARK    2  A    between atoms: _3  and  _4
REMARK    3  A    between atoms: _7  and  _9
REMARK    4  A    between atoms: _9  and  _10
REMARK    5  A    between atoms: _9  and  _12
REMARK    6  A    between atoms: _12  and  _13
REMARK    7  A    between atoms: _15  and  _17
REMARK    8  A    between atoms: _17  and  _18
REMARK    9  A    between atoms: _17  and  _20
REMARK   10  A    between atoms: _20  and  _21
REMARK   11  A    between atoms: _23  and  _25
REMARK   12  A    between atoms: _25  and  _26
REMARK   13  A    between atoms: _29  and  _31
REMARK   14  A    between atoms: _31  and  _32
REMARK   15  A    between atoms: _31  and  _34
REMARK   16  A    between atoms: _34  and  _35
REMARK   17  A    between atoms: _40  and  _41
REMARK   18  A    between atoms: _43  and  _45
REMARK   19  A    between atoms: _45  and  _46
REMARK   20  A    between atoms: _45  and  _48
REMARK   21  A    between atoms: _48  and  _49
REMARK   22  A    between atoms: _49  and  _50
REMARK   23  A    between atoms: _55  and  _57
REMARK   24  A    between atoms: _57  and  _58
REMARK   25  A    between atoms: _57  and  _60
REMARK   26  A    between atoms: _60  and  _61
REMARK   27  A    between atoms: _67  and  _69
REMARK   28  A    between atoms: _69  and  _70
REMARK   29  A    between atoms: _69  and  _72
REMARK   30  A    between atoms: _72  and  _73
REMARK   31  A    between atoms: _83  and  _85
REMARK   32  A    between atoms: _85  and  _86
REMARK   33  A    between atoms: _85  and  _88
REMARK   34  A    between atoms: _88  and  _89
REMARK   35  A    between atoms: _91  and  _93
REMARK   36  A    between atoms: _93  and  _94
REMARK   37  A    between atoms: _93  and  _96
REMARK   38  A    between atoms: _96  and  _97
REMARK   39  A    between atoms: _97  and  _98
REMARK   40  A    between atoms: _98  and  _99
REMARK   41  A    between atoms: _108  and  _110
REMARK   42  A    between atoms: _110  and  _111
REMARK   43  A    between atoms: _110  and  _113
REMARK   44  A    between atoms: _113  and  _114
REMARK   45  A    between atoms: _117  and  _119
REMARK   46  A    between atoms: _119  and  _120
REMARK   47  A    between atoms: _119  and  _122
REMARK   48  A    between atoms: _122  and  _123
REMARK   49  A    between atoms: _128  and  _130
REMARK   50  A    between atoms: _130  and  _131
REMARK   51  A    between atoms: _130  and  _133
REMARK   52  A    between atoms: _133  and  _134
REMARK   53  A    between atoms: _144  and  _146
REMARK   54  A    between atoms: _146  and  _147
REMARK   55  A    between atoms: _146  and  _149
REMARK   56  A    between atoms: _149  and  _150
REMARK   57  A    between atoms: _155  and  _157
REMARK   58  A    between atoms: _157  and  _158
REMARK   59  A    between atoms: _157  and  _160
REMARK   60  A    between atoms: _160  and  _161
REMARK   61  A    between atoms: _161  and  _162
REMARK   62  A    between atoms: _165  and  _167
REMARK   63  A    between atoms: _167  and  _168
REMARK   64  A    between atoms: _167  and  _170
REMARK   65  A    between atoms: _170  and  _171
REMARK   66  A    between atoms: _181  and  _183
REMARK   67  A    between atoms: _183  and  _184
REMARK   68  A    between atoms: _183  and  _186
REMARK   69  A    between atoms: _186  and  _187
REMARK   70  A    between atoms: _189  and  _191
REMARK   71  A    between atoms: _191  and  _192
REMARK   72  A    between atoms: _191  and  _194
REMARK   73  A    between atoms: _194  and  _195
REMARK   74  A    between atoms: _200  and  _201
REMARK   75  A    between atoms: _203  and  _205
REMARK   76  A    between atoms: _205  and  _206
REMARK   77  A    between atoms: _205  and  _208
REMARK   78  A    between atoms: _208  and  _209
REMARK   79  A    between atoms: _211  and  _213
REMARK   80  A    between atoms: _213  and  _214
REMARK   81  A    between atoms: _213  and  _216
REMARK   82  A    between atoms: _216  and  _217
REMARK   83  A    between atoms: _222  and  _223
REMARK   84  A    between atoms: _225  and  _227
REMARK   85  A    between atoms: _227  and  _228
REMARK   86  A    between atoms: _230  and  _232
REMARK   87  A    between atoms: _232  and  _233
REMARK   88  A    between atoms: _235  and  _237
REMARK   89  A    between atoms: _237  and  _238
REMARK   90  A    between atoms: _237  and  _240
REMARK   91  A    between atoms: _240  and  _241
REMARK   92  A    between atoms: _246  and  _247
REMARK   93  A    between atoms: _249  and  _251
REMARK   94  A    between atoms: _251  and  _252
REMARK   95  A    between atoms: _251  and  _254
REMARK   96  A    between atoms: _254  and  _255
REMARK   97  A    between atoms: _258  and  _260
REMARK   98  A    between atoms: _260  and  _261
REMARK   99  A    between atoms: _264  and  _266
REMARK  100  A    between atoms: _266  and  _267
REMARK  101  A    between atoms: _269  and  _271
REMARK  102  A    between atoms: _271  and  _272
REMARK  103  A    between atoms: _271  and  _274
REMARK  104  A    between atoms: _274  and  _275
REMARK  105  A    between atoms: _278  and  _280
REMARK  106  A    between atoms: _280  and  _281
REMARK  107  A    between atoms: _280  and  _283
REMARK  108  A    between atoms: _283  and  _284
REMARK  109  A    between atoms: _287  and  _289
REMARK  110  A    between atoms: _289  and  _290
REMARK  111  A    between atoms: _289  and  _292
REMARK  112  A    between atoms: _292  and  _293
REMARK  113  A    between atoms: _296  and  _298
REMARK  114  A    between atoms: _298  and  _299
REMARK  115  A    between atoms: _298  and  _301
REMARK  116  A    between atoms: _304  and  _306
REMARK  117  A    between atoms: _306  and  _307
REMARK  118  A    between atoms: _306  and  _309
REMARK  119  A    between atoms: _309  and  _310
REMARK  120  A    between atoms: _313  and  _315
REMARK  121  A    between atoms: _315  and  _316
REMARK  122  A    between atoms: _315  and  _318
REMARK  123  A    between atoms: _318  and  _319
REMARK  124  A    between atoms: _324  and  _325
REMARK  125  A    between atoms: _327  and  _329
REMARK  126  A    between atoms: _329  and  _330
REMARK  127  A    between atoms: _329  and  _332
REMARK  128  A    between atoms: _332  and  _333
REMARK  129  A    between atoms: _333  and  _334
REMARK  130  A    between atoms: _336  and  _338
REMARK  131  A    between atoms: _338  and  _339
REMARK  132  A    between atoms: _338  and  _341
REMARK  133  A    between atoms: _341  and  _342
REMARK  134  A    between atoms: _347  and  _349
REMARK  135  A    between atoms: _349  and  _350
REMARK  136  A    between atoms: _349  and  _352
REMARK  137  A    between atoms: _352  and  _353
REMARK  138  A    between atoms: _358  and  _359
REMARK  139  A    between atoms: _361  and  _363
REMARK  140  A    between atoms: _363  and  _364
REMARK  141  A    between atoms: _363  and  _366
REMARK  142  A    between atoms: _366  and  _367
REMARK  143  A    between atoms: _372  and  _373
REMARK  144  A    between atoms: _375  and  _377
REMARK  145  A    between atoms: _377  and  _378
REMARK  146  A    between atoms: _377  and  _380
REMARK  147  A    between atoms: _380  and  _381
REMARK  148  A    between atoms: _384  and  _386
REMARK  149  A    between atoms: _386  and  _387
REMARK  150  A    between atoms: _386  and  _389
REMARK  151  A    between atoms: _389  and  _390
REMARK  152  A    between atoms: _395  and  _397
REMARK  153  A    between atoms: _397  and  _398
REMARK  154  A    between atoms: _397  and  _400
REMARK  155  A    between atoms: _400  and  _401
REMARK  156  A    between atoms: _401  and  _402
REMARK  157  A    between atoms: _407  and  _409
REMARK  158  A    between atoms: _409  and  _410
REMARK  159  A    between atoms: _409  and  _412
REMARK  160  A    between atoms: _412  and  _413
REMARK  161  A    between atoms: _416  and  _418
REMARK  162  A    between atoms: _418  and  _419
REMARK  163  A    between atoms: _421  and  _423
REMARK  164  A    between atoms: _423  and  _424
REMARK  165  A    between atoms: _423  and  _426
REMARK  166  A    between atoms: _430  and  _431
REMARK  167  A    between atoms: _436  and  _438
REMARK  168  A    between atoms: _438  and  _439
REMARK  169  A    between atoms: _442  and  _444
REMARK  170  A    between atoms: _444  and  _445
REMARK  171  A    between atoms: _444  and  _447
REMARK  172  A    between atoms: _447  and  _448
REMARK  173  A    between atoms: _454  and  _456
REMARK  174  A    between atoms: _456  and  _457
REMARK  175  A    between atoms: _456  and  _459
REMARK  176  A    between atoms: _459  and  _460
REMARK  177  A    between atoms: _463  and  _465
REMARK  178  A    between atoms: _465  and  _466
REMARK  179  A    between atoms: _465  and  _468
REMARK  180  A    between atoms: _468  and  _469
REMARK  181  A    between atoms: _469  and  _470
REMARK  182  A    between atoms: _473  and  _475
REMARK  183  A    between atoms: _475  and  _476
REMARK  184  A    between atoms: _475  and  _478
REMARK  185  A    between atoms: _478  and  _479
REMARK  186  A    between atoms: _484  and  _486
REMARK  187  A    between atoms: _486  and  _487
REMARK  188  A    between atoms: _489  and  _491
REMARK  189  A    between atoms: _491  and  _492
REMARK  190  A    between atoms: _491  and  _494
REMARK  191  A    between atoms: _494  and  _495
REMARK  192  A    between atoms: _495  and  _496
REMARK  193  A    between atoms: _498  and  _500
REMARK  194  A    between atoms: _500  and  _501
REMARK  195  A    between atoms: _503  and  _505
REMARK  196  A    between atoms: _505  and  _506
REMARK  197  A    between atoms: _505  and  _508
REMARK  198  A    between atoms: _508  and  _509
REMARK  199  A    between atoms: _519  and  _521
REMARK  200  A    between atoms: _521  and  _522
REMARK  201  A    between atoms: _525  and  _527
REMARK  202  A    between atoms: _527  and  _528
REMARK  203  A    between atoms: _527  and  _530
REMARK  204  A    between atoms: _530  and  _531
REMARK  205  A    between atoms: _534  and  _536
REMARK  206  A    between atoms: _536  and  _537
REMARK  207  A    between atoms: _536  and  _539
REMARK  208  A    between atoms: _539  and  _540
REMARK  209  A    between atoms: _545  and  _547
REMARK  210  A    between atoms: _547  and  _548
REMARK  211  A    between atoms: _547  and  _550
REMARK  212  A    between atoms: _550  and  _551
REMARK  213  A    between atoms: _557  and  _559
REMARK  214  A    between atoms: _559  and  _560
REMARK  215  A    between atoms: _559  and  _562
REMARK  216  A    between atoms: _562  and  _563
REMARK  217  A    between atoms: _563  and  _564
REMARK  218  A    between atoms: _567  and  _569
REMARK  219  A    between atoms: _569  and  _570
REMARK  220  A    between atoms: _569  and  _572
REMARK  221  A    between atoms: _572  and  _573
REMARK  222  A    between atoms: _583  and  _585
REMARK  223  A    between atoms: _585  and  _586
REMARK  224  A    between atoms: _585  and  _588
REMARK  225  A    between atoms: _588  and  _589
REMARK  226  A    between atoms: _592  and  _594
REMARK  227  A    between atoms: _594  and  _595
REMARK  228  A    between atoms: _594  and  _597
REMARK  229  A    between atoms: _597  and  _598
REMARK  230  A    between atoms: _600  and  _602
REMARK  231  A    between atoms: _602  and  _603
REMARK  232  A    between atoms: _605  and  _607
REMARK  233  A    between atoms: _607  and  _608
REMARK  234  A    between atoms: _607  and  _610
REMARK  235  A    between atoms: _610  and  _611
REMARK  236  A    between atoms: _614  and  _616
REMARK  237  A    between atoms: _616  and  _617
REMARK  238  A    between atoms: _616  and  _619
REMARK  239  A    between atoms: _619  and  _620
REMARK  240  A    between atoms: _620  and  _621
REMARK  241  A    between atoms: _626  and  _628
REMARK  242  A    between atoms: _628  and  _629
REMARK  243  A    between atoms: _628  and  _631
REMARK  244  A    between atoms: _631  and  _632
REMARK                            x       y       z     vdW  Elec       q    Type
REMARK                         _______ _______ _______ _____ _____    ______ ____
ROOT
ATOM      1  O   HOH     1      -5.103  35.964  13.410  0.00  0.00    +0.000 OA
ENDROOT
TORSDOF 0
REMARK  Name = ../refined-set-2016/3wq6/3wq6_pocket.pdb
REMARK  244 active torsions:
REMARK  status: ('A' for Active; 'I' for Inactive)
REMARK    1  A    between atoms: _1  and  _3
REMARK    2  A    between atoms: _3  and  _4
REMARK    3  A    between atoms: _7  and  _9
REMARK    4  A    between atoms: _9  and  _10
REMARK    5  A    between atoms: _9  and  _12
REMARK    6  A    between atoms: _12  and  _13
REMARK    7  A    between atoms: _15  and  _17
REMARK    8  A    between atoms: _17  and  _18
REMARK    9  A    between atoms: _17  and  _20
REMARK   10  A    between atoms: _20  and  _21
REMARK   11  A    between atoms: _23  and  _25
REMARK   12  A    between atoms: _25  and  _26
REMARK   13  A    between atoms: _29  and  _31
REMARK   14  A    between atoms: _31  and  _32
REMARK   15  A    between atoms: _31  and  _34
REMARK   16  A    between atoms: _34  and  _35
REMARK   17  A    between atoms: _40  and  _41
REMARK   18  A    between atoms: _43  and  _45
REMARK   19  A    between atoms: _45  and  _46
REMARK   20  A    between atoms: _45  and  _48
REMARK   21  A    between atoms: _48  and  _49
REMARK   22  A    between atoms: _49  and  _50
REMARK   23  A    between atoms: _55  and  _57
REMARK   24  A    between atoms: _57  and  _58
REMARK   25  A    between atoms: _57  and  _60
REMARK   26  A    between atoms: _60  and  _61
REMARK   27  A    between atoms: _67  and  _69
REMARK   28  A    between atoms: _69  and  _70
REMARK   29  A    between atoms: _69  and  _72
REMARK   30  A    between atoms: _72  and  _73
REMARK   31  A    between atoms: _83  and  _85
REMARK   32  A    between atoms: _85  and  _86
REMARK   33  A    between atoms: _85  and  _88
REMARK   34  A    between atoms: _88  and  _89
REMARK   35  A    between atoms: _91  and  _93
REMARK   36  A    between atoms: _93  and  _94
REMARK   37  A    between atoms: _93  and  _96
REMARK   38  A    between atoms: _96  and  _97
REMARK   39  A    between atoms: _97  and  _98
REMARK   40  A    between atoms: _98  and  _99
REMARK   41  A    between atoms: _108  and  _110
REMARK   42  A    between atoms: _110  and  _111
REMARK   43  A    between atoms: _110  and  _113
REMARK   44  A    between atoms: _113  and  _114
REMARK   45  A    between atoms: _117  and  _119
REMARK   46  A    between atoms: _119  and  _120
REMARK   47  A    between atoms: _119  and  _122
REMARK   48  A    between atoms: _122  and  _123
REMARK   49  A    between atoms: _128  and  _130
REMARK   50  A    between atoms: _130  and  _131
REMARK   51  A    between atoms: _130  and  _133
REMARK   52  A    between atoms: _133  and  _134
REMARK   53  A    between atoms: _144  and  _146
REMARK   54  A    between atoms: _146  and  _147
REMARK   55  A    between atoms: _146  and  _149
REMARK   56  A    between atoms: _149  and  _150
REMARK   57  A    between atoms: _155  and  _157
REMARK   58  A    between atoms: _157  and  _158
REMARK   59  A    between atoms: _157  and  _160
REMARK   60  A    between atoms: _160  and  _161
REMARK   61  A    between atoms: _161  and  _162
REMARK   62  A    between atoms: _165  and  _167
REMARK   63  A    between atoms: _167  and  _168
REMARK   64  A    between atoms: _167  and  _170
REMARK   65  A    between atoms: _170  and  _171
REMARK   66  A    between atoms: _181  and  _183
REMARK   67  A    between atoms: _183  and  _184
REMARK   68  A    between atoms: _183  and  _186
REMARK   69  A    between atoms: _186  and  _187
REMARK   70  A    between atoms: _189  and  _191
REMARK   71  A    between atoms: _191  and  _192
REMARK   72  A    between atoms: _191  and  _194
REMARK   73  A    between atoms: _194  and  _195
REMARK   74  A    between atoms: _200  and  _201
REMARK   75  A    between atoms: _203  and  _205
REMARK   76  A    between atoms: _205  and  _206
REMARK   77  A    between atoms: _205  and  _208
REMARK   78  A    between atoms: _208  and  _209
REMARK   79  A    between atoms: _211  and  _213
REMARK   80  A    between atoms: _213  and  _214
REMARK   81  A    between atoms: _213  and  _216
REMARK   82  A    between atoms: _216  and  _217
REMARK   83  A    between atoms: _222  and  _223
REMARK   84  A    between atoms: _225  and  _227
REMARK   85  A    between atoms: _227  and  _228
REMARK   86  A    between atoms: _230  and  _232
REMARK   87  A    between atoms: _232  and  _233
REMARK   88  A    between atoms: _235  and  _237
REMARK   89  A    between atoms: _237  and  _238
REMARK   90  A    between atoms: _237  and  _240
REMARK   91  A    between atoms: _240  and  _241
REMARK   92  A    between atoms: _246  and  _247
REMARK   93  A    between atoms: _249  and  _251
REMARK   94  A    between atoms: _251  and  _252
REMARK   95  A    between atoms: _251  and  _254
REMARK   96  A    between atoms: _254  and  _255
REMARK   97  A    between atoms: _258  and  _260
REMARK   98  A    between atoms: _260  and  _261
REMARK   99  A    between atoms: _264  and  _266
REMARK  100  A    between atoms: _266  and  _267
REMARK  101  A    between atoms: _269  and  _271
REMARK  102  A    between atoms: _271  and  _272
REMARK  103  A    between atoms: _271  and  _274
REMARK  104  A    between atoms: _274  and  _275
REMARK  105  A    between atoms: _278  and  _280
REMARK  106  A    between atoms: _280  and  _281
REMARK  107  A    between atoms: _280  and  _283
REMARK  108  A    between atoms: _283  and  _284
REMARK  109  A    between atoms: _287  and  _289
REMARK  110  A    between atoms: _289  and  _290
REMARK  111  A    between atoms: _289  and  _292
REMARK  112  A    between atoms: _292  and  _293
REMARK  113  A    between atoms: _296  and  _298
REMARK  114  A    between atoms: _298  and  _299
REMARK  115  A    between atoms: _298  and  _301
REMARK  116  A    between atoms: _304  and  _306
REMARK  117  A    between atoms: _306  and  _307
REMARK  118  A    between atoms: _306  and  _309
REMARK  119  A    between atoms: _309  and  _310
REMARK  120  A    between atoms: _313  and  _315
REMARK  121  A    between atoms: _315  and  _316
REMARK  122  A    between atoms: _315  and  _318
REMARK  123  A    between atoms: _318  and  _319
REMARK  124  A    between atoms: _324  and  _325
REMARK  125  A    between atoms: _327  and  _329
REMARK  126  A    between atoms: _329  and  _330
REMARK  127  A    between atoms: _329  and  _332
REMARK  128  A    between atoms: _332  and  _333
REMARK  129  A    between atoms: _333  and  _334
REMARK  130  A    between atoms: _336  and  _338
REMARK  131  A    between atoms: _338  and  _339
REMARK  132  A    between atoms: _338  and  _341
REMARK  133  A    between atoms: _341  and  _342
REMARK  134  A    between atoms: _347  and  _349
REMARK  135  A    between atoms: _349  and  _350
REMARK  136  A    between atoms: _349  and  _352
REMARK  137  A    between atoms: _352  and  _353
REMARK  138  A    between atoms: _358  and  _359
REMARK  139  A    between atoms: _361  and  _363
REMARK  140  A    between atoms: _363  and  _364
REMARK  141  A    between atoms: _363  and  _366
REMARK  142  A    between atoms: _366  and  _367
REMARK  143  A    between atoms: _372  and  _373
REMARK  144  A    between atoms: _375  and  _377
REMARK  145  A    between atoms: _377  and  _378
REMARK  146  A    between atoms: _377  and  _380
REMARK  147  A    between atoms: _380  and  _381
REMARK  148  A    between atoms: _384  and  _386
REMARK  149  A    between atoms: _386  and  _387
REMARK  150  A    between atoms: _386  and  _389
REMARK  151  A    between atoms: _389  and  _390
REMARK  152  A    between atoms: _395  and  _397
REMARK  153  A    between atoms: _397  and  _398
REMARK  154  A    between atoms: _397  and  _400
REMARK  155  A    between atoms: _400  and  _401
REMARK  156  A    between atoms: _401  and  _402
REMARK  157  A    between atoms: _407  and  _409
REMARK  158  A    between atoms: _409  and  _410
REMARK  159  A    between atoms: _409  and  _412
REMARK  160  A    between atoms: _412  and  _413
REMARK  161  A    between atoms: _416  and  _418
REMARK  162  A    between atoms: _418  and  _419
REMARK  163  A    between atoms: _421  and  _423
REMARK  164  A    between atoms: _423  and  _424
REMARK  165  A    between atoms: _423  and  _426
REMARK  166  A    between atoms: _430  and  _431
REMARK  167  A    between atoms: _436  and  _438
REMARK  168  A    between atoms: _438  and  _439
REMARK  169  A    between atoms: _442  and  _444
REMARK  170  A    between atoms: _444  and  _445
REMARK  171  A    between atoms: _444  and  _447
REMARK  172  A    between atoms: _447  and  _448
REMARK  173  A    between atoms: _454  and  _456
REMARK  174  A    between atoms: _456  and  _457
REMARK  175  A    between atoms: _456  and  _459
REMARK  176  A    between atoms: _459  and  _460
REMARK  177  A    between atoms: _463  and  _465
REMARK  178  A    between atoms: _465  and  _466
REMARK  179  A    between atoms: _465  and  _468
REMARK  180  A    between atoms: _468  and  _469
REMARK  181  A    between atoms: _469  and  _470
REMARK  182  A    between atoms: _473  and  _475
REMARK  183  A    between atoms: _475  and  _476
REMARK  184  A    between atoms: _475  and  _478
REMARK  185  A    between atoms: _478  and  _479
REMARK  186  A    between atoms: _484  and  _486
REMARK  187  A    between atoms: _486  and  _487
REMARK  188  A    between atoms: _489  and  _491
REMARK  189  A    between atoms: _491  and  _492
REMARK  190  A    between atoms: _491  and  _494
REMARK  191  A    between atoms: _494  and  _495
REMARK  192  A    between atoms: _495  and  _496
REMARK  193  A    between atoms: _498  and  _500
REMARK  194  A    between atoms: _500  and  _501
REMARK  195  A    between atoms: _503  and  _505
REMARK  196  A    between atoms: _505  and  _506
REMARK  197  A    between atoms: _505  and  _508
REMARK  198  A    between atoms: _508  and  _509
REMARK  199  A    between atoms: _519  and  _521
REMARK  200  A    between atoms: _521  and  _522
REMARK  201  A    between atoms: _525  and  _527
REMARK  202  A    between atoms: _527  and  _528
REMARK  203  A    between atoms: _527  and  _530
REMARK  204  A    between atoms: _530  and  _531
REMARK  205  A    between atoms: _534  and  _536
REMARK  206  A    between atoms: _536  and  _537
REMARK  207  A    between atoms: _536  and  _539
REMARK  208  A    between atoms: _539  and  _540
REMARK  209  A    between atoms: _545  and  _547
REMARK  210  A    between atoms: _547  and  _548
REMARK  211  A    between atoms: _547  and  _550
REMARK  212  A    between atoms: _550  and  _551
REMARK  213  A    between atoms: _557  and  _559
REMARK  214  A    between atoms: _559  and  _560
REMARK  215  A    between atoms: _559  and  _562
REMARK  216  A    between atoms: _562  and  _563
REMARK  217  A    between atoms: _563  and  _564
REMARK  218  A    between atoms: _567  and  _569
REMARK  219  A    between atoms: _569  and  _570
REMARK  220  A    between atoms: _569  and  _572
REMARK  221  A    between atoms: _572  and  _573
REMARK  222  A    between atoms: _583  and  _585
REMARK  223  A    between atoms: _585  and  _586
REMARK  224  A    between atoms: _585  and  _588
REMARK  225  A    between atoms: _588  and  _589
REMARK  226  A    between atoms: _592  and  _594
REMARK  227  A    between atoms: _594  and  _595
REMARK  228  A    between atoms: _594  and  _597
REMARK  229  A    between atoms: _597  and  _598
REMARK  230  A    between atoms: _600  and  _602
REMARK  231  A    between atoms: _602  and  _603
REMARK  232  A    between atoms: _605  and  _607
REMARK  233  A    between atoms: _607  and  _608
REMARK  234  A    between atoms: _607  and  _610
REMARK  235  A    between atoms: _610  and  _611
REMARK  236  A    between atoms: _614  and  _616
REMARK  237  A    between atoms: _616  and  _617
REMARK  238  A    between atoms: _616  and  _619
REMARK  239  A    between atoms: _619  and  _620
REMARK  240  A    between atoms: _620  and  _621
REMARK  241  A    between atoms: _626  and  _628
REMARK  242  A    between atoms: _628  and  _629
REMARK  243  A    between atoms: _628  and  _631
REMARK  244  A    between atoms: _631  and  _632
REMARK                            x       y       z     vdW  Elec       q    Type
REMARK                         _______ _______ _______ _____ _____    ______ ____
ROOT
ATOM      1  O   HOH     1      -8.632  39.622  16.457  0.00  0.00    +0.000 OA
ENDROOT
TORSDOF 0
REMARK  Name = ../refined-set-2016/3wq6/3wq6_pocket.pdb
REMARK  244 active torsions:
REMARK  status: ('A' for Active; 'I' for Inactive)
REMARK    1  A    between atoms: _1  and  _3
REMARK    2  A    between atoms: _3  and  _4
REMARK    3  A    between atoms: _7  and  _9
REMARK    4  A    between atoms: _9  and  _10
REMARK    5  A    between atoms: _9  and  _12
REMARK    6  A    between atoms: _12  and  _13
REMARK    7  A    between atoms: _15  and  _17
REMARK    8  A    between atoms: _17  and  _18
REMARK    9  A    between atoms: _17  and  _20
REMARK   10  A    between atoms: _20  and  _21
REMARK   11  A    between atoms: _23  and  _25
REMARK   12  A    between atoms: _25  and  _26
REMARK   13  A    between atoms: _29  and  _31
REMARK   14  A    between atoms: _31  and  _32
REMARK   15  A    between atoms: _31  and  _34
REMARK   16  A    between atoms: _34  and  _35
REMARK   17  A    between atoms: _40  and  _41
REMARK   18  A    between atoms: _43  and  _45
REMARK   19  A    between atoms: _45  and  _46
REMARK   20  A    between atoms: _45  and  _48
REMARK   21  A    between atoms: _48  and  _49
REMARK   22  A    between atoms: _49  and  _50
REMARK   23  A    between atoms: _55  and  _57
REMARK   24  A    between atoms: _57  and  _58
REMARK   25  A    between atoms: _57  and  _60
REMARK   26  A    between atoms: _60  and  _61
REMARK   27  A    between atoms: _67  and  _69
REMARK   28  A    between atoms: _69  and  _70
REMARK   29  A    between atoms: _69  and  _72
REMARK   30  A    between atoms: _72  and  _73
REMARK   31  A    between atoms: _83  and  _85
REMARK   32  A    between atoms: _85  and  _86
REMARK   33  A    between atoms: _85  and  _88
REMARK   34  A    between atoms: _88  and  _89
REMARK   35  A    between atoms: _91  and  _93
REMARK   36  A    between atoms: _93  and  _94
REMARK   37  A    between atoms: _93  and  _96
REMARK   38  A    between atoms: _96  and  _97
REMARK   39  A    between atoms: _97  and  _98
REMARK   40  A    between atoms: _98  and  _99
REMARK   41  A    between atoms: _108  and  _110
REMARK   42  A    between atoms: _110  and  _111
REMARK   43  A    between atoms: _110  and  _113
REMARK   44  A    between atoms: _113  and  _114
REMARK   45  A    between atoms: _117  and  _119
REMARK   46  A    between atoms: _119  and  _120
REMARK   47  A    between atoms: _119  and  _122
REMARK   48  A    between atoms: _122  and  _123
REMARK   49  A    between atoms: _128  and  _130
REMARK   50  A    between atoms: _130  and  _131
REMARK   51  A    between atoms: _130  and  _133
REMARK   52  A    between atoms: _133  and  _134
REMARK   53  A    between atoms: _144  and  _146
REMARK   54  A    between atoms: _146  and  _147
REMARK   55  A    between atoms: _146  and  _149
REMARK   56  A    between atoms: _149  and  _150
REMARK   57  A    between atoms: _155  and  _157
REMARK   58  A    between atoms: _157  and  _158
REMARK   59  A    between atoms: _157  and  _160
REMARK   60  A    between atoms: _160  and  _161
REMARK   61  A    between atoms: _161  and  _162
REMARK   62  A    between atoms: _165  and  _167
REMARK   63  A    between atoms: _167  and  _168
REMARK   64  A    between atoms: _167  and  _170
REMARK   65  A    between atoms: _170  and  _171
REMARK   66  A    between atoms: _181  and  _183
REMARK   67  A    between atoms: _183  and  _184
REMARK   68  A    between atoms: _183  and  _186
REMARK   69  A    between atoms: _186  and  _187
REMARK   70  A    between atoms: _189  and  _191
REMARK   71  A    between atoms: _191  and  _192
REMARK   72  A    between atoms: _191  and  _194
REMARK   73  A    between atoms: _194  and  _195
REMARK   74  A    between atoms: _200  and  _201
REMARK   75  A    between atoms: _203  and  _205
REMARK   76  A    between atoms: _205  and  _206
REMARK   77  A    between atoms: _205  and  _208
REMARK   78  A    between atoms: _208  and  _209
REMARK   79  A    between atoms: _211  and  _213
REMARK   80  A    between atoms: _213  and  _214
REMARK   81  A    between atoms: _213  and  _216
REMARK   82  A    between atoms: _216  and  _217
REMARK   83  A    between atoms: _222  and  _223
REMARK   84  A    between atoms: _225  and  _227
REMARK   85  A    between atoms: _227  and  _228
REMARK   86  A    between atoms: _230  and  _232
REMARK   87  A    between atoms: _232  and  _233
REMARK   88  A    between atoms: _235  and  _237
REMARK   89  A    between atoms: _237  and  _238
REMARK   90  A    between atoms: _237  and  _240
REMARK   91  A    between atoms: _240  and  _241
REMARK   92  A    between atoms: _246  and  _247
REMARK   93  A    between atoms: _249  and  _251
REMARK   94  A    between atoms: _251  and  _252
REMARK   95  A    between atoms: _251  and  _254
REMARK   96  A    between atoms: _254  and  _255
REMARK   97  A    between atoms: _258  and  _260
REMARK   98  A    between atoms: _260  and  _261
REMARK   99  A    between atoms: _264  and  _266
REMARK  100  A    between atoms: _266  and  _267
REMARK  101  A    between atoms: _269  and  _271
REMARK  102  A    between atoms: _271  and  _272
REMARK  103  A    between atoms: _271  and  _274
REMARK  104  A    between atoms: _274  and  _275
REMARK  105  A    between atoms: _278  and  _280
REMARK  106  A    between atoms: _280  and  _281
REMARK  107  A    between atoms: _280  and  _283
REMARK  108  A    between atoms: _283  and  _284
REMARK  109  A    between atoms: _287  and  _289
REMARK  110  A    between atoms: _289  and  _290
REMARK  111  A    between atoms: _289  and  _292
REMARK  112  A    between atoms: _292  and  _293
REMARK  113  A    between atoms: _296  and  _298
REMARK  114  A    between atoms: _298  and  _299
REMARK  115  A    between atoms: _298  and  _301
REMARK  116  A    between atoms: _304  and  _306
REMARK  117  A    between atoms: _306  and  _307
REMARK  118  A    between atoms: _306  and  _309
REMARK  119  A    between atoms: _309  and  _310
REMARK  120  A    between atoms: _313  and  _315
REMARK  121  A    between atoms: _315  and  _316
REMARK  122  A    between atoms: _315  and  _318
REMARK  123  A    between atoms: _318  and  _319
REMARK  124  A    between atoms: _324  and  _325
REMARK  125  A    between atoms: _327  and  _329
REMARK  126  A    between atoms: _329  and  _330
REMARK  127  A    between atoms: _329  and  _332
REMARK  128  A    between atoms: _332  and  _333
REMARK  129  A    between atoms: _333  and  _334
REMARK  130  A    between atoms: _336  and  _338
REMARK  131  A    between atoms: _338  and  _339
REMARK  132  A    between atoms: _338  and  _341
REMARK  133  A    between atoms: _341  and  _342
REMARK  134  A    between atoms: _347  and  _349
REMARK  135  A    between atoms: _349  and  _350
REMARK  136  A    between atoms: _349  and  _352
REMARK  137  A    between atoms: _352  and  _353
REMARK  138  A    between atoms: _358  and  _359
REMARK  139  A    between atoms: _361  and  _363
REMARK  140  A    between atoms: _363  and  _364
REMARK  141  A    between atoms: _363  and  _366
REMARK  142  A    between atoms: _366  and  _367
REMARK  143  A    between atoms: _372  and  _373
REMARK  144  A    between atoms: _375  and  _377
REMARK  145  A    between atoms: _377  and  _378
REMARK  146  A    between atoms: _377  and  _380
REMARK  147  A    between atoms: _380  and  _381
REMARK  148  A    between atoms: _384  and  _386
REMARK  149  A    between atoms: _386  and  _387
REMARK  150  A    between atoms: _386  and  _389
REMARK  151  A    between atoms: _389  and  _390
REMARK  152  A    between atoms: _395  and  _397
REMARK  153  A    between atoms: _397  and  _398
REMARK  154  A    between atoms: _397  and  _400
REMARK  155  A    between atoms: _400  and  _401
REMARK  156  A    between atoms: _401  and  _402
REMARK  157  A    between atoms: _407  and  _409
REMARK  158  A    between atoms: _409  and  _410
REMARK  159  A    between atoms: _409  and  _412
REMARK  160  A    between atoms: _412  and  _413
REMARK  161  A    between atoms: _416  and  _418
REMARK  162  A    between atoms: _418  and  _419
REMARK  163  A    between atoms: _421  and  _423
REMARK  164  A    between atoms: _423  and  _424
REMARK  165  A    between atoms: _423  and  _426
REMARK  166  A    between atoms: _430  and  _431
REMARK  167  A    between atoms: _436  and  _438
REMARK  168  A    between atoms: _438  and  _439
REMARK  169  A    between atoms: _442  and  _444
REMARK  170  A    between atoms: _444  and  _445
REMARK  171  A    between atoms: _444  and  _447
REMARK  172  A    between atoms: _447  and  _448
REMARK  173  A    between atoms: _454  and  _456
REMARK  174  A    between atoms: _456  and  _457
REMARK  175  A    between atoms: _456  and  _459
REMARK  176  A    between atoms: _459  and  _460
REMARK  177  A    between atoms: _463  and  _465
REMARK  178  A    between atoms: _465  and  _466
REMARK  179  A    between atoms: _465  and  _468
REMARK  180  A    between atoms: _468  and  _469
REMARK  181  A    between atoms: _469  and  _470
REMARK  182  A    between atoms: _473  and  _475
REMARK  183  A    between atoms: _475  and  _476
REMARK  184  A    between atoms: _475  and  _478
REMARK  185  A    between atoms: _478  and  _479
REMARK  186  A    between atoms: _484  and  _486
REMARK  187  A    between atoms: _486  and  _487
REMARK  188  A    between atoms: _489  and  _491
REMARK  189  A    between atoms: _491  and  _492
REMARK  190  A    between atoms: _491  and  _494
REMARK  191  A    between atoms: _494  and  _495
REMARK  192  A    between atoms: _495  and  _496
REMARK  193  A    between atoms: _498  and  _500
REMARK  194  A    between atoms: _500  and  _501
REMARK  195  A    between atoms: _503  and  _505
REMARK  196  A    between atoms: _505  and  _506
REMARK  197  A    between atoms: _505  and  _508
REMARK  198  A    between atoms: _508  and  _509
REMARK  199  A    between atoms: _519  and  _521
REMARK  200  A    between atoms: _521  and  _522
REMARK  201  A    between atoms: _525  and  _527
REMARK  202  A    between atoms: _527  and  _528
REMARK  203  A    between atoms: _527  and  _530
REMARK  204  A    between atoms: _530  and  _531
REMARK  205  A    between atoms: _534  and  _536
REMARK  206  A    between atoms: _536  and  _537
REMARK  207  A    between atoms: _536  and  _539
REMARK  208  A    between atoms: _539  and  _540
REMARK  209  A    between atoms: _545  and  _547
REMARK  210  A    between atoms: _547  and  _548
REMARK  211  A    between atoms: _547  and  _550
REMARK  212  A    between atoms: _550  and  _551
REMARK  213  A    between atoms: _557  and  _559
REMARK  214  A    between atoms: _559  and  _560
REMARK  215  A    between atoms: _559  and  _562
REMARK  216  A    between atoms: _562  and  _563
REMARK  217  A    between atoms: _563  and  _564
REMARK  218  A    between atoms: _567  and  _569
REMARK  219  A    between atoms: _569  and  _570
REMARK  220  A    between atoms: _569  and  _572
REMARK  221  A    between atoms: _572  and  _573
REMARK  222  A    between atoms: _583  and  _585
REMARK  223  A    between atoms: _585  and  _586
REMARK  224  A    between atoms: _585  and  _588
REMARK  225  A    between atoms: _588  and  _589
REMARK  226  A    between atoms: _592  and  _594
REMARK  227  A    between atoms: _594  and  _595
REMARK  228  A    between atoms: _594  and  _597
REMARK  229  A    between atoms: _597  and  _598
REMARK  230  A    between atoms: _600  and  _602
REMARK  231  A    between atoms: _602  and  _603
REMARK  232  A    between atoms: _605  and  _607
REMARK  233  A    between atoms: _607  and  _608
REMARK  234  A    between atoms: _607  and  _610
REMARK  235  A    between atoms: _610  and  _611
REMARK  236  A    between atoms: _614  and  _616
REMARK  237  A    between atoms: _616  and  _617
REMARK  238  A    between atoms: _616  and  _619
REMARK  239  A    between atoms: _619  and  _620
REMARK  240  A    between atoms: _620  and  _621
REMARK  241  A    between atoms: _626  and  _628
REMARK  242  A    between atoms: _628  and  _629
REMARK  243  A    between atoms: _628  and  _631
REMARK  244  A    between atoms: _631  and  _632
REMARK                            x       y       z     vdW  Elec       q    Type
REMARK                         _______ _______ _______ _____ _____    ______ ____
ROOT
ATOM      1  O   HOH     1     -10.846  39.778  19.754  0.00  0.00    +0.000 OA
ENDROOT
TORSDOF 0
REMARK  Name = ../refined-set-2016/3wq6/3wq6_pocket.pdb
REMARK  244 active torsions:
REMARK  status: ('A' for Active; 'I' for Inactive)
REMARK    1  A    between atoms: _1  and  _3
REMARK    2  A    between atoms: _3  and  _4
REMARK    3  A    between atoms: _7  and  _9
REMARK    4  A    between atoms: _9  and  _10
REMARK    5  A    between atoms: _9  and  _12
REMARK    6  A    between atoms: _12  and  _13
REMARK    7  A    between atoms: _15  and  _17
REMARK    8  A    between atoms: _17  and  _18
REMARK    9  A    between atoms: _17  and  _20
REMARK   10  A    between atoms: _20  and  _21
REMARK   11  A    between atoms: _23  and  _25
REMARK   12  A    between atoms: _25  and  _26
REMARK   13  A    between atoms: _29  and  _31
REMARK   14  A    between atoms: _31  and  _32
REMARK   15  A    between atoms: _31  and  _34
REMARK   16  A    between atoms: _34  and  _35
REMARK   17  A    between atoms: _40  and  _41
REMARK   18  A    between atoms: _43  and  _45
REMARK   19  A    between atoms: _45  and  _46
REMARK   20  A    between atoms: _45  and  _48
REMARK   21  A    between atoms: _48  and  _49
REMARK   22  A    between atoms: _49  and  _50
REMARK   23  A    between atoms: _55  and  _57
REMARK   24  A    between atoms: _57  and  _58
REMARK   25  A    between atoms: _57  and  _60
REMARK   26  A    between atoms: _60  and  _61
REMARK   27  A    between atoms: _67  and  _69
REMARK   28  A    between atoms: _69  and  _70
REMARK   29  A    between atoms: _69  and  _72
REMARK   30  A    between atoms: _72  and  _73
REMARK   31  A    between atoms: _83  and  _85
REMARK   32  A    between atoms: _85  and  _86
REMARK   33  A    between atoms: _85  and  _88
REMARK   34  A    between atoms: _88  and  _89
REMARK   35  A    between atoms: _91  and  _93
REMARK   36  A    between atoms: _93  and  _94
REMARK   37  A    between atoms: _93  and  _96
REMARK   38  A    between atoms: _96  and  _97
REMARK   39  A    between atoms: _97  and  _98
REMARK   40  A    between atoms: _98  and  _99
REMARK   41  A    between atoms: _108  and  _110
REMARK   42  A    between atoms: _110  and  _111
REMARK   43  A    between atoms: _110  and  _113
REMARK   44  A    between atoms: _113  and  _114
REMARK   45  A    between atoms: _117  and  _119
REMARK   46  A    between atoms: _119  and  _120
REMARK   47  A    between atoms: _119  and  _122
REMARK   48  A    between atoms: _122  and  _123
REMARK   49  A    between atoms: _128  and  _130
REMARK   50  A    between atoms: _130  and  _131
REMARK   51  A    between atoms: _130  and  _133
REMARK   52  A    between atoms: _133  and  _134
REMARK   53  A    between atoms: _144  and  _146
REMARK   54  A    between atoms: _146  and  _147
REMARK   55  A    between atoms: _146  and  _149
REMARK   56  A    between atoms: _149  and  _150
REMARK   57  A    between atoms: _155  and  _157
REMARK   58  A    between atoms: _157  and  _158
REMARK   59  A    between atoms: _157  and  _160
REMARK   60  A    between atoms: _160  and  _161
REMARK   61  A    between atoms: _161  and  _162
REMARK   62  A    between atoms: _165  and  _167
REMARK   63  A    between atoms: _167  and  _168
REMARK   64  A    between atoms: _167  and  _170
REMARK   65  A    between atoms: _170  and  _171
REMARK   66  A    between atoms: _181  and  _183
REMARK   67  A    between atoms: _183  and  _184
REMARK   68  A    between atoms: _183  and  _186
REMARK   69  A    between atoms: _186  and  _187
REMARK   70  A    between atoms: _189  and  _191
REMARK   71  A    between atoms: _191  and  _192
REMARK   72  A    between atoms: _191  and  _194
REMARK   73  A    between atoms: _194  and  _195
REMARK   74  A    between atoms: _200  and  _201
REMARK   75  A    between atoms: _203  and  _205
REMARK   76  A    between atoms: _205  and  _206
REMARK   77  A    between atoms: _205  and  _208
REMARK   78  A    between atoms: _208  and  _209
REMARK   79  A    between atoms: _211  and  _213
REMARK   80  A    between atoms: _213  and  _214
REMARK   81  A    between atoms: _213  and  _216
REMARK   82  A    between atoms: _216  and  _217
REMARK   83  A    between atoms: _222  and  _223
REMARK   84  A    between atoms: _225  and  _227
REMARK   85  A    between atoms: _227  and  _228
REMARK   86  A    between atoms: _230  and  _232
REMARK   87  A    between atoms: _232  and  _233
REMARK   88  A    between atoms: _235  and  _237
REMARK   89  A    between atoms: _237  and  _238
REMARK   90  A    between atoms: _237  and  _240
REMARK   91  A    between atoms: _240  and  _241
REMARK   92  A    between atoms: _246  and  _247
REMARK   93  A    between atoms: _249  and  _251
REMARK   94  A    between atoms: _251  and  _252
REMARK   95  A    between atoms: _251  and  _254
REMARK   96  A    between atoms: _254  and  _255
REMARK   97  A    between atoms: _258  and  _260
REMARK   98  A    between atoms: _260  and  _261
REMARK   99  A    between atoms: _264  and  _266
REMARK  100  A    between atoms: _266  and  _267
REMARK  101  A    between atoms: _269  and  _271
REMARK  102  A    between atoms: _271  and  _272
REMARK  103  A    between atoms: _271  and  _274
REMARK  104  A    between atoms: _274  and  _275
REMARK  105  A    between atoms: _278  and  _280
REMARK  106  A    between atoms: _280  and  _281
REMARK  107  A    between atoms: _280  and  _283
REMARK  108  A    between atoms: _283  and  _284
REMARK  109  A    between atoms: _287  and  _289
REMARK  110  A    between atoms: _289  and  _290
REMARK  111  A    between atoms: _289  and  _292
REMARK  112  A    between atoms: _292  and  _293
REMARK  113  A    between atoms: _296  and  _298
REMARK  114  A    between atoms: _298  and  _299
REMARK  115  A    between atoms: _298  and  _301
REMARK  116  A    between atoms: _304  and  _306
REMARK  117  A    between atoms: _306  and  _307
REMARK  118  A    between atoms: _306  and  _309
REMARK  119  A    between atoms: _309  and  _310
REMARK  120  A    between atoms: _313  and  _315
REMARK  121  A    between atoms: _315  and  _316
REMARK  122  A    between atoms: _315  and  _318
REMARK  123  A    between atoms: _318  and  _319
REMARK  124  A    between atoms: _324  and  _325
REMARK  125  A    between atoms: _327  and  _329
REMARK  126  A    between atoms: _329  and  _330
REMARK  127  A    between atoms: _329  and  _332
REMARK  128  A    between atoms: _332  and  _333
REMARK  129  A    between atoms: _333  and  _334
REMARK  130  A    between atoms: _336  and  _338
REMARK  131  A    between atoms: _338  and  _339
REMARK  132  A    between atoms: _338  and  _341
REMARK  133  A    between atoms: _341  and  _342
REMARK  134  A    between atoms: _347  and  _349
REMARK  135  A    between atoms: _349  and  _350
REMARK  136  A    between atoms: _349  and  _352
REMARK  137  A    between atoms: _352  and  _353
REMARK  138  A    between atoms: _358  and  _359
REMARK  139  A    between atoms: _361  and  _363
REMARK  140  A    between atoms: _363  and  _364
REMARK  141  A    between atoms: _363  and  _366
REMARK  142  A    between atoms: _366  and  _367
REMARK  143  A    between atoms: _372  and  _373
REMARK  144  A    between atoms: _375  and  _377
REMARK  145  A    between atoms: _377  and  _378
REMARK  146  A    between atoms: _377  and  _380
REMARK  147  A    between atoms: _380  and  _381
REMARK  148  A    between atoms: _384  and  _386
REMARK  149  A    between atoms: _386  and  _387
REMARK  150  A    between atoms: _386  and  _389
REMARK  151  A    between atoms: _389  and  _390
REMARK  152  A    between atoms: _395  and  _397
REMARK  153  A    between atoms: _397  and  _398
REMARK  154  A    between atoms: _397  and  _400
REMARK  155  A    between atoms: _400  and  _401
REMARK  156  A    between atoms: _401  and  _402
REMARK  157  A    between atoms: _407  and  _409
REMARK  158  A    between atoms: _409  and  _410
REMARK  159  A    between atoms: _409  and  _412
REMARK  160  A    between atoms: _412  and  _413
REMARK  161  A    between atoms: _416  and  _418
REMARK  162  A    between atoms: _418  and  _419
REMARK  163  A    between atoms: _421  and  _423
REMARK  164  A    between atoms: _423  and  _424
REMARK  165  A    between atoms: _423  and  _426
REMARK  166  A    between atoms: _430  and  _431
REMARK  167  A    between atoms: _436  and  _438
REMARK  168  A    between atoms: _438  and  _439
REMARK  169  A    between atoms: _442  and  _444
REMARK  170  A    between atoms: _444  and  _445
REMARK  171  A    between atoms: _444  and  _447
REMARK  172  A    between atoms: _447  and  _448
REMARK  173  A    between atoms: _454  and  _456
REMARK  174  A    between atoms: _456  and  _457
REMARK  175  A    between atoms: _456  and  _459
REMARK  176  A    between atoms: _459  and  _460
REMARK  177  A    between atoms: _463  and  _465
REMARK  178  A    between atoms: _465  and  _466
REMARK  179  A    between atoms: _465  and  _468
REMARK  180  A    between atoms: _468  and  _469
REMARK  181  A    between atoms: _469  and  _470
REMARK  182  A    between atoms: _473  and  _475
REMARK  183  A    between atoms: _475  and  _476
REMARK  184  A    between atoms: _475  and  _478
REMARK  185  A    between atoms: _478  and  _479
REMARK  186  A    between atoms: _484  and  _486
REMARK  187  A    between atoms: _486  and  _487
REMARK  188  A    between atoms: _489  and  _491
REMARK  189  A    between atoms: _491  and  _492
REMARK  190  A    between atoms: _491  and  _494
REMARK  191  A    between atoms: _494  and  _495
REMARK  192  A    between atoms: _495  and  _496
REMARK  193  A    between atoms: _498  and  _500
REMARK  194  A    between atoms: _500  and  _501
REMARK  195  A    between atoms: _503  and  _505
REMARK  196  A    between atoms: _505  and  _506
REMARK  197  A    between atoms: _505  and  _508
REMARK  198  A    between atoms: _508  and  _509
REMARK  199  A    between atoms: _519  and  _521
REMARK  200  A    between atoms: _521  and  _522
REMARK  201  A    between atoms: _525  and  _527
REMARK  202  A    between atoms: _527  and  _528
REMARK  203  A    between atoms: _527  and  _530
REMARK  204  A    between atoms: _530  and  _531
REMARK  205  A    between atoms: _534  and  _536
REMARK  206  A    between atoms: _536  and  _537
REMARK  207  A    between atoms: _536  and  _539
REMARK  208  A    between atoms: _539  and  _540
REMARK  209  A    between atoms: _545  and  _547
REMARK  210  A    between atoms: _547  and  _548
REMARK  211  A    between atoms: _547  and  _550
REMARK  212  A    between atoms: _550  and  _551
REMARK  213  A    between atoms: _557  and  _559
REMARK  214  A    between atoms: _559  and  _560
REMARK  215  A    between atoms: _559  and  _562
REMARK  216  A    between atoms: _562  and  _563
REMARK  217  A    between atoms: _563  and  _564
REMARK  218  A    between atoms: _567  and  _569
REMARK  219  A    between atoms: _569  and  _570
REMARK  220  A    between atoms: _569  and  _572
REMARK  221  A    between atoms: _572  and  _573
REMARK  222  A    between atoms: _583  and  _585
REMARK  223  A    between atoms: _585  and  _586
REMARK  224  A    between atoms: _585  and  _588
REMARK  225  A    between atoms: _588  and  _589
REMARK  226  A    between atoms: _592  and  _594
REMARK  227  A    between atoms: _594  and  _595
REMARK  228  A    between atoms: _594  and  _597
REMARK  229  A    between atoms: _597  and  _598
REMARK  230  A    between atoms: _600  and  _602
REMARK  231  A    between atoms: _602  and  _603
REMARK  232  A    between atoms: _605  and  _607
REMARK  233  A    between atoms: _607  and  _608
REMARK  234  A    between atoms: _607  and  _610
REMARK  235  A    between atoms: _610  and  _611
REMARK  236  A    between atoms: _614  and  _616
REMARK  237  A    between atoms: _616  and  _617
REMARK  238  A    between atoms: _616  and  _619
REMARK  239  A    between atoms: _619  and  _620
REMARK  240  A    between atoms: _620  and  _621
REMARK  241  A    between atoms: _626  and  _628
REMARK  242  A    between atoms: _628  and  _629
REMARK  243  A    between atoms: _628  and  _631
REMARK  244  A    between atoms: _631  and  _632
REMARK                            x       y       z     vdW  Elec       q    Type
REMARK                         _______ _______ _______ _____ _____    ______ ____
ROOT
ATOM      1  O   HOH     1     -11.162  33.398  16.415  0.00  0.00    +0.000 OA
ENDROOT
TORSDOF 0
REMARK  Name = ../refined-set-2016/3wq6/3wq6_pocket.pdb
REMARK  244 active torsions:
REMARK  status: ('A' for Active; 'I' for Inactive)
REMARK    1  A    between atoms: _1  and  _3
REMARK    2  A    between atoms: _3  and  _4
REMARK    3  A    between atoms: _7  and  _9
REMARK    4  A    between atoms: _9  and  _10
REMARK    5  A    between atoms: _9  and  _12
REMARK    6  A    between atoms: _12  and  _13
REMARK    7  A    between atoms: _15  and  _17
REMARK    8  A    between atoms: _17  and  _18
REMARK    9  A    between atoms: _17  and  _20
REMARK   10  A    between atoms: _20  and  _21
REMARK   11  A    between atoms: _23  and  _25
REMARK   12  A    between atoms: _25  and  _26
REMARK   13  A    between atoms: _29  and  _31
REMARK   14  A    between atoms: _31  and  _32
REMARK   15  A    between atoms: _31  and  _34
REMARK   16  A    between atoms: _34  and  _35
REMARK   17  A    between atoms: _40  and  _41
REMARK   18  A    between atoms: _43  and  _45
REMARK   19  A    between atoms: _45  and  _46
REMARK   20  A    between atoms: _45  and  _48
REMARK   21  A    between atoms: _48  and  _49
REMARK   22  A    between atoms: _49  and  _50
REMARK   23  A    between atoms: _55  and  _57
REMARK   24  A    between atoms: _57  and  _58
REMARK   25  A    between atoms: _57  and  _60
REMARK   26  A    between atoms: _60  and  _61
REMARK   27  A    between atoms: _67  and  _69
REMARK   28  A    between atoms: _69  and  _70
REMARK   29  A    between atoms: _69  and  _72
REMARK   30  A    between atoms: _72  and  _73
REMARK   31  A    between atoms: _83  and  _85
REMARK   32  A    between atoms: _85  and  _86
REMARK   33  A    between atoms: _85  and  _88
REMARK   34  A    between atoms: _88  and  _89
REMARK   35  A    between atoms: _91  and  _93
REMARK   36  A    between atoms: _93  and  _94
REMARK   37  A    between atoms: _93  and  _96
REMARK   38  A    between atoms: _96  and  _97
REMARK   39  A    between atoms: _97  and  _98
REMARK   40  A    between atoms: _98  and  _99
REMARK   41  A    between atoms: _108  and  _110
REMARK   42  A    between atoms: _110  and  _111
REMARK   43  A    between atoms: _110  and  _113
REMARK   44  A    between atoms: _113  and  _114
REMARK   45  A    between atoms: _117  and  _119
REMARK   46  A    between atoms: _119  and  _120
REMARK   47  A    between atoms: _119  and  _122
REMARK   48  A    between atoms: _122  and  _123
REMARK   49  A    between atoms: _128  and  _130
REMARK   50  A    between atoms: _130  and  _131
REMARK   51  A    between atoms: _130  and  _133
REMARK   52  A    between atoms: _133  and  _134
REMARK   53  A    between atoms: _144  and  _146
REMARK   54  A    between atoms: _146  and  _147
REMARK   55  A    between atoms: _146  and  _149
REMARK   56  A    between atoms: _149  and  _150
REMARK   57  A    between atoms: _155  and  _157
REMARK   58  A    between atoms: _157  and  _158
REMARK   59  A    between atoms: _157  and  _160
REMARK   60  A    between atoms: _160  and  _161
REMARK   61  A    between atoms: _161  and  _162
REMARK   62  A    between atoms: _165  and  _167
REMARK   63  A    between atoms: _167  and  _168
REMARK   64  A    between atoms: _167  and  _170
REMARK   65  A    between atoms: _170  and  _171
REMARK   66  A    between atoms: _181  and  _183
REMARK   67  A    between atoms: _183  and  _184
REMARK   68  A    between atoms: _183  and  _186
REMARK   69  A    between atoms: _186  and  _187
REMARK   70  A    between atoms: _189  and  _191
REMARK   71  A    between atoms: _191  and  _192
REMARK   72  A    between atoms: _191  and  _194
REMARK   73  A    between atoms: _194  and  _195
REMARK   74  A    between atoms: _200  and  _201
REMARK   75  A    between atoms: _203  and  _205
REMARK   76  A    between atoms: _205  and  _206
REMARK   77  A    between atoms: _205  and  _208
REMARK   78  A    between atoms: _208  and  _209
REMARK   79  A    between atoms: _211  and  _213
REMARK   80  A    between atoms: _213  and  _214
REMARK   81  A    between atoms: _213  and  _216
REMARK   82  A    between atoms: _216  and  _217
REMARK   83  A    between atoms: _222  and  _223
REMARK   84  A    between atoms: _225  and  _227
REMARK   85  A    between atoms: _227  and  _228
REMARK   86  A    between atoms: _230  and  _232
REMARK   87  A    between atoms: _232  and  _233
REMARK   88  A    between atoms: _235  and  _237
REMARK   89  A    between atoms: _237  and  _238
REMARK   90  A    between atoms: _237  and  _240
REMARK   91  A    between atoms: _240  and  _241
REMARK   92  A    between atoms: _246  and  _247
REMARK   93  A    between atoms: _249  and  _251
REMARK   94  A    between atoms: _251  and  _252
REMARK   95  A    between atoms: _251  and  _254
REMARK   96  A    between atoms: _254  and  _255
REMARK   97  A    between atoms: _258  and  _260
REMARK   98  A    between atoms: _260  and  _261
REMARK   99  A    between atoms: _264  and  _266
REMARK  100  A    between atoms: _266  and  _267
REMARK  101  A    between atoms: _269  and  _271
REMARK  102  A    between atoms: _271  and  _272
REMARK  103  A    between atoms: _271  and  _274
REMARK  104  A    between atoms: _274  and  _275
REMARK  105  A    between atoms: _278  and  _280
REMARK  106  A    between atoms: _280  and  _281
REMARK  107  A    between atoms: _280  and  _283
REMARK  108  A    between atoms: _283  and  _284
REMARK  109  A    between atoms: _287  and  _289
REMARK  110  A    between atoms: _289  and  _290
REMARK  111  A    between atoms: _289  and  _292
REMARK  112  A    between atoms: _292  and  _293
REMARK  113  A    between atoms: _296  and  _298
REMARK  114  A    between atoms: _298  and  _299
REMARK  115  A    between atoms: _298  and  _301
REMARK  116  A    between atoms: _304  and  _306
REMARK  117  A    between atoms: _306  and  _307
REMARK  118  A    between atoms: _306  and  _309
REMARK  119  A    between atoms: _309  and  _310
REMARK  120  A    between atoms: _313  and  _315
REMARK  121  A    between atoms: _315  and  _316
REMARK  122  A    between atoms: _315  and  _318
REMARK  123  A    between atoms: _318  and  _319
REMARK  124  A    between atoms: _324  and  _325
REMARK  125  A    between atoms: _327  and  _329
REMARK  126  A    between atoms: _329  and  _330
REMARK  127  A    between atoms: _329  and  _332
REMARK  128  A    between atoms: _332  and  _333
REMARK  129  A    between atoms: _333  and  _334
REMARK  130  A    between atoms: _336  and  _338
REMARK  131  A    between atoms: _338  and  _339
REMARK  132  A    between atoms: _338  and  _341
REMARK  133  A    between atoms: _341  and  _342
REMARK  134  A    between atoms: _347  and  _349
REMARK  135  A    between atoms: _349  and  _350
REMARK  136  A    between atoms: _349  and  _352
REMARK  137  A    between atoms: _352  and  _353
REMARK  138  A    between atoms: _358  and  _359
REMARK  139  A    between atoms: _361  and  _363
REMARK  140  A    between atoms: _363  and  _364
REMARK  141  A    between atoms: _363  and  _366
REMARK  142  A    between atoms: _366  and  _367
REMARK  143  A    between atoms: _372  and  _373
REMARK  144  A    between atoms: _375  and  _377
REMARK  145  A    between atoms: _377  and  _378
REMARK  146  A    between atoms: _377  and  _380
REMARK  147  A    between atoms: _380  and  _381
REMARK  148  A    between atoms: _384  and  _386
REMARK  149  A    between atoms: _386  and  _387
REMARK  150  A    between atoms: _386  and  _389
REMARK  151  A    between atoms: _389  and  _390
REMARK  152  A    between atoms: _395  and  _397
REMARK  153  A    between atoms: _397  and  _398
REMARK  154  A    between atoms: _397  and  _400
REMARK  155  A    between atoms: _400  and  _401
REMARK  156  A    between atoms: _401  and  _402
REMARK  157  A    between atoms: _407  and  _409
REMARK  158  A    between atoms: _409  and  _410
REMARK  159  A    between atoms: _409  and  _412
REMARK  160  A    between atoms: _412  and  _413
REMARK  161  A    between atoms: _416  and  _418
REMARK  162  A    between atoms: _418  and  _419
REMARK  163  A    between atoms: _421  and  _423
REMARK  164  A    between atoms: _423  and  _424
REMARK  165  A    between atoms: _423  and  _426
REMARK  166  A    between atoms: _430  and  _431
REMARK  167  A    between atoms: _436  and  _438
REMARK  168  A    between atoms: _438  and  _439
REMARK  169  A    between atoms: _442  and  _444
REMARK  170  A    between atoms: _444  and  _445
REMARK  171  A    between atoms: _444  and  _447
REMARK  172  A    between atoms: _447  and  _448
REMARK  173  A    between atoms: _454  and  _456
REMARK  174  A    between atoms: _456  and  _457
REMARK  175  A    between atoms: _456  and  _459
REMARK  176  A    between atoms: _459  and  _460
REMARK  177  A    between atoms: _463  and  _465
REMARK  178  A    between atoms: _465  and  _466
REMARK  179  A    between atoms: _465  and  _468
REMARK  180  A    between atoms: _468  and  _469
REMARK  181  A    between atoms: _469  and  _470
REMARK  182  A    between atoms: _473  and  _475
REMARK  183  A    between atoms: _475  and  _476
REMARK  184  A    between atoms: _475  and  _478
REMARK  185  A    between atoms: _478  and  _479
REMARK  186  A    between atoms: _484  and  _486
REMARK  187  A    between atoms: _486  and  _487
REMARK  188  A    between atoms: _489  and  _491
REMARK  189  A    between atoms: _491  and  _492
REMARK  190  A    between atoms: _491  and  _494
REMARK  191  A    between atoms: _494  and  _495
REMARK  192  A    between atoms: _495  and  _496
REMARK  193  A    between atoms: _498  and  _500
REMARK  194  A    between atoms: _500  and  _501
REMARK  195  A    between atoms: _503  and  _505
REMARK  196  A    between atoms: _505  and  _506
REMARK  197  A    between atoms: _505  and  _508
REMARK  198  A    between atoms: _508  and  _509
REMARK  199  A    between atoms: _519  and  _521
REMARK  200  A    between atoms: _521  and  _522
REMARK  201  A    between atoms: _525  and  _527
REMARK  202  A    between atoms: _527  and  _528
REMARK  203  A    between atoms: _527  and  _530
REMARK  204  A    between atoms: _530  and  _531
REMARK  205  A    between atoms: _534  and  _536
REMARK  206  A    between atoms: _536  and  _537
REMARK  207  A    between atoms: _536  and  _539
REMARK  208  A    between atoms: _539  and  _540
REMARK  209  A    between atoms: _545  and  _547
REMARK  210  A    between atoms: _547  and  _548
REMARK  211  A    between atoms: _547  and  _550
REMARK  212  A    between atoms: _550  and  _551
REMARK  213  A    between atoms: _557  and  _559
REMARK  214  A    between atoms: _559  and  _560
REMARK  215  A    between atoms: _559  and  _562
REMARK  216  A    between atoms: _562  and  _563
REMARK  217  A    between atoms: _563  and  _564
REMARK  218  A    between atoms: _567  and  _569
REMARK  219  A    between atoms: _569  and  _570
REMARK  220  A    between atoms: _569  and  _572
REMARK  221  A    between atoms: _572  and  _573
REMARK  222  A    between atoms: _583  and  _585
REMARK  223  A    between atoms: _585  and  _586
REMARK  224  A    between atoms: _585  and  _588
REMARK  225  A    between atoms: _588  and  _589
REMARK  226  A    between atoms: _592  and  _594
REMARK  227  A    between atoms: _594  and  _595
REMARK  228  A    between atoms: _594  and  _597
REMARK  229  A    between atoms: _597  and  _598
REMARK  230  A    between atoms: _600  and  _602
REMARK  231  A    between atoms: _602  and  _603
REMARK  232  A    between atoms: _605  and  _607
REMARK  233  A    between atoms: _607  and  _608
REMARK  234  A    between atoms: _607  and  _610
REMARK  235  A    between atoms: _610  and  _611
REMARK  236  A    between atoms: _614  and  _616
REMARK  237  A    between atoms: _616  and  _617
REMARK  238  A    between atoms: _616  and  _619
REMARK  239  A    between atoms: _619  and  _620
REMARK  240  A    between atoms: _620  and  _621
REMARK  241  A    between atoms: _626  and  _628
REMARK  242  A    between atoms: _628  and  _629
REMARK  243  A    between atoms: _628  and  _631
REMARK  244  A    between atoms: _631  and  _632
REMARK                            x       y       z     vdW  Elec       q    Type
REMARK                         _______ _______ _______ _____ _____    ______ ____
ROOT
ATOM      1  O   HOH     1      -5.021  29.924  11.766  0.00  0.00    +0.000 OA
ENDROOT
TORSDOF 0
REMARK  Name = ../refined-set-2016/3wq6/3wq6_pocket.pdb
REMARK  244 active torsions:
REMARK  status: ('A' for Active; 'I' for Inactive)
REMARK    1  A    between atoms: _1  and  _3
REMARK    2  A    between atoms: _3  and  _4
REMARK    3  A    between atoms: _7  and  _9
REMARK    4  A    between atoms: _9  and  _10
REMARK    5  A    between atoms: _9  and  _12
REMARK    6  A    between atoms: _12  and  _13
REMARK    7  A    between atoms: _15  and  _17
REMARK    8  A    between atoms: _17  and  _18
REMARK    9  A    between atoms: _17  and  _20
REMARK   10  A    between atoms: _20  and  _21
REMARK   11  A    between atoms: _23  and  _25
REMARK   12  A    between atoms: _25  and  _26
REMARK   13  A    between atoms: _29  and  _31
REMARK   14  A    between atoms: _31  and  _32
REMARK   15  A    between atoms: _31  and  _34
REMARK   16  A    between atoms: _34  and  _35
REMARK   17  A    between atoms: _40  and  _41
REMARK   18  A    between atoms: _43  and  _45
REMARK   19  A    between atoms: _45  and  _46
REMARK   20  A    between atoms: _45  and  _48
REMARK   21  A    between atoms: _48  and  _49
REMARK   22  A    between atoms: _49  and  _50
REMARK   23  A    between atoms: _55  and  _57
REMARK   24  A    between atoms: _57  and  _58
REMARK   25  A    between atoms: _57  and  _60
REMARK   26  A    between atoms: _60  and  _61
REMARK   27  A    between atoms: _67  and  _69
REMARK   28  A    between atoms: _69  and  _70
REMARK   29  A    between atoms: _69  and  _72
REMARK   30  A    between atoms: _72  and  _73
REMARK   31  A    between atoms: _83  and  _85
REMARK   32  A    between atoms: _85  and  _86
REMARK   33  A    between atoms: _85  and  _88
REMARK   34  A    between atoms: _88  and  _89
REMARK   35  A    between atoms: _91  and  _93
REMARK   36  A    between atoms: _93  and  _94
REMARK   37  A    between atoms: _93  and  _96
REMARK   38  A    between atoms: _96  and  _97
REMARK   39  A    between atoms: _97  and  _98
REMARK   40  A    between atoms: _98  and  _99
REMARK   41  A    between atoms: _108  and  _110
REMARK   42  A    between atoms: _110  and  _111
REMARK   43  A    between atoms: _110  and  _113
REMARK   44  A    between atoms: _113  and  _114
REMARK   45  A    between atoms: _117  and  _119
REMARK   46  A    between atoms: _119  and  _120
REMARK   47  A    between atoms: _119  and  _122
REMARK   48  A    between atoms: _122  and  _123
REMARK   49  A    between atoms: _128  and  _130
REMARK   50  A    between atoms: _130  and  _131
REMARK   51  A    between atoms: _130  and  _133
REMARK   52  A    between atoms: _133  and  _134
REMARK   53  A    between atoms: _144  and  _146
REMARK   54  A    between atoms: _146  and  _147
REMARK   55  A    between atoms: _146  and  _149
REMARK   56  A    between atoms: _149  and  _150
REMARK   57  A    between atoms: _155  and  _157
REMARK   58  A    between atoms: _157  and  _158
REMARK   59  A    between atoms: _157  and  _160
REMARK   60  A    between atoms: _160  and  _161
REMARK   61  A    between atoms: _161  and  _162
REMARK   62  A    between atoms: _165  and  _167
REMARK   63  A    between atoms: _167  and  _168
REMARK   64  A    between atoms: _167  and  _170
REMARK   65  A    between atoms: _170  and  _171
REMARK   66  A    between atoms: _181  and  _183
REMARK   67  A    between atoms: _183  and  _184
REMARK   68  A    between atoms: _183  and  _186
REMARK   69  A    between atoms: _186  and  _187
REMARK   70  A    between atoms: _189  and  _191
REMARK   71  A    between atoms: _191  and  _192
REMARK   72  A    between atoms: _191  and  _194
REMARK   73  A    between atoms: _194  and  _195
REMARK   74  A    between atoms: _200  and  _201
REMARK   75  A    between atoms: _203  and  _205
REMARK   76  A    between atoms: _205  and  _206
REMARK   77  A    between atoms: _205  and  _208
REMARK   78  A    between atoms: _208  and  _209
REMARK   79  A    between atoms: _211  and  _213
REMARK   80  A    between atoms: _213  and  _214
REMARK   81  A    between atoms: _213  and  _216
REMARK   82  A    between atoms: _216  and  _217
REMARK   83  A    between atoms: _222  and  _223
REMARK   84  A    between atoms: _225  and  _227
REMARK   85  A    between atoms: _227  and  _228
REMARK   86  A    between atoms: _230  and  _232
REMARK   87  A    between atoms: _232  and  _233
REMARK   88  A    between atoms: _235  and  _237
REMARK   89  A    between atoms: _237  and  _238
REMARK   90  A    between atoms: _237  and  _240
REMARK   91  A    between atoms: _240  and  _241
REMARK   92  A    between atoms: _246  and  _247
REMARK   93  A    between atoms: _249  and  _251
REMARK   94  A    between atoms: _251  and  _252
REMARK   95  A    between atoms: _251  and  _254
REMARK   96  A    between atoms: _254  and  _255
REMARK   97  A    between atoms: _258  and  _260
REMARK   98  A    between atoms: _260  and  _261
REMARK   99  A    between atoms: _264  and  _266
REMARK  100  A    between atoms: _266  and  _267
REMARK  101  A    between atoms: _269  and  _271
REMARK  102  A    between atoms: _271  and  _272
REMARK  103  A    between atoms: _271  and  _274
REMARK  104  A    between atoms: _274  and  _275
REMARK  105  A    between atoms: _278  and  _280
REMARK  106  A    between atoms: _280  and  _281
REMARK  107  A    between atoms: _280  and  _283
REMARK  108  A    between atoms: _283  and  _284
REMARK  109  A    between atoms: _287  and  _289
REMARK  110  A    between atoms: _289  and  _290
REMARK  111  A    between atoms: _289  and  _292
REMARK  112  A    between atoms: _292  and  _293
REMARK  113  A    between atoms: _296  and  _298
REMARK  114  A    between atoms: _298  and  _299
REMARK  115  A    between atoms: _298  and  _301
REMARK  116  A    between atoms: _304  and  _306
REMARK  117  A    between atoms: _306  and  _307
REMARK  118  A    between atoms: _306  and  _309
REMARK  119  A    between atoms: _309  and  _310
REMARK  120  A    between atoms: _313  and  _315
REMARK  121  A    between atoms: _315  and  _316
REMARK  122  A    between atoms: _315  and  _318
REMARK  123  A    between atoms: _318  and  _319
REMARK  124  A    between atoms: _324  and  _325
REMARK  125  A    between atoms: _327  and  _329
REMARK  126  A    between atoms: _329  and  _330
REMARK  127  A    between atoms: _329  and  _332
REMARK  128  A    between atoms: _332  and  _333
REMARK  129  A    between atoms: _333  and  _334
REMARK  130  A    between atoms: _336  and  _338
REMARK  131  A    between atoms: _338  and  _339
REMARK  132  A    between atoms: _338  and  _341
REMARK  133  A    between atoms: _341  and  _342
REMARK  134  A    between atoms: _347  and  _349
REMARK  135  A    between atoms: _349  and  _350
REMARK  136  A    between atoms: _349  and  _352
REMARK  137  A    between atoms: _352  and  _353
REMARK  138  A    between atoms: _358  and  _359
REMARK  139  A    between atoms: _361  and  _363
REMARK  140  A    between atoms: _363  and  _364
REMARK  141  A    between atoms: _363  and  _366
REMARK  142  A    between atoms: _366  and  _367
REMARK  143  A    between atoms: _372  and  _373
REMARK  144  A    between atoms: _375  and  _377
REMARK  145  A    between atoms: _377  and  _378
REMARK  146  A    between atoms: _377  and  _380
REMARK  147  A    between atoms: _380  and  _381
REMARK  148  A    between atoms: _384  and  _386
REMARK  149  A    between atoms: _386  and  _387
REMARK  150  A    between atoms: _386  and  _389
REMARK  151  A    between atoms: _389  and  _390
REMARK  152  A    between atoms: _395  and  _397
REMARK  153  A    between atoms: _397  and  _398
REMARK  154  A    between atoms: _397  and  _400
REMARK  155  A    between atoms: _400  and  _401
REMARK  156  A    between atoms: _401  and  _402
REMARK  157  A    between atoms: _407  and  _409
REMARK  158  A    between atoms: _409  and  _410
REMARK  159  A    between atoms: _409  and  _412
REMARK  160  A    between atoms: _412  and  _413
REMARK  161  A    between atoms: _416  and  _418
REMARK  162  A    between atoms: _418  and  _419
REMARK  163  A    between atoms: _421  and  _423
REMARK  164  A    between atoms: _423  and  _424
REMARK  165  A    between atoms: _423  and  _426
REMARK  166  A    between atoms: _430  and  _431
REMARK  167  A    between atoms: _436  and  _438
REMARK  168  A    between atoms: _438  and  _439
REMARK  169  A    between atoms: _442  and  _444
REMARK  170  A    between atoms: _444  and  _445
REMARK  171  A    between atoms: _444  and  _447
REMARK  172  A    between atoms: _447  and  _448
REMARK  173  A    between atoms: _454  and  _456
REMARK  174  A    between atoms: _456  and  _457
REMARK  175  A    between atoms: _456  and  _459
REMARK  176  A    between atoms: _459  and  _460
REMARK  177  A    between atoms: _463  and  _465
REMARK  178  A    between atoms: _465  and  _466
REMARK  179  A    between atoms: _465  and  _468
REMARK  180  A    between atoms: _468  and  _469
REMARK  181  A    between atoms: _469  and  _470
REMARK  182  A    between atoms: _473  and  _475
REMARK  183  A    between atoms: _475  and  _476
REMARK  184  A    between atoms: _475  and  _478
REMARK  185  A    between atoms: _478  and  _479
REMARK  186  A    between atoms: _484  and  _486
REMARK  187  A    between atoms: _486  and  _487
REMARK  188  A    between atoms: _489  and  _491
REMARK  189  A    between atoms: _491  and  _492
REMARK  190  A    between atoms: _491  and  _494
REMARK  191  A    between atoms: _494  and  _495
REMARK  192  A    between atoms: _495  and  _496
REMARK  193  A    between atoms: _498  and  _500
REMARK  194  A    between atoms: _500  and  _501
REMARK  195  A    between atoms: _503  and  _505
REMARK  196  A    between atoms: _505  and  _506
REMARK  197  A    between atoms: _505  and  _508
REMARK  198  A    between atoms: _508  and  _509
REMARK  199  A    between atoms: _519  and  _521
REMARK  200  A    between atoms: _521  and  _522
REMARK  201  A    between atoms: _525  and  _527
REMARK  202  A    between atoms: _527  and  _528
REMARK  203  A    between atoms: _527  and  _530
REMARK  204  A    between atoms: _530  and  _531
REMARK  205  A    between atoms: _534  and  _536
REMARK  206  A    between atoms: _536  and  _537
REMARK  207  A    between atoms: _536  and  _539
REMARK  208  A    between atoms: _539  and  _540
REMARK  209  A    between atoms: _545  and  _547
REMARK  210  A    between atoms: _547  and  _548
REMARK  211  A    between atoms: _547  and  _550
REMARK  212  A    between atoms: _550  and  _551
REMARK  213  A    between atoms: _557  and  _559
REMARK  214  A    between atoms: _559  and  _560
REMARK  215  A    between atoms: _559  and  _562
REMARK  216  A    between atoms: _562  and  _563
REMARK  217  A    between atoms: _563  and  _564
REMARK  218  A    between atoms: _567  and  _569
REMARK  219  A    between atoms: _569  and  _570
REMARK  220  A    between atoms: _569  and  _572
REMARK  221  A    between atoms: _572  and  _573
REMARK  222  A    between atoms: _583  and  _585
REMARK  223  A    between atoms: _585  and  _586
REMARK  224  A    between atoms: _585  and  _588
REMARK  225  A    between atoms: _588  and  _589
REMARK  226  A    between atoms: _592  and  _594
REMARK  227  A    between atoms: _594  and  _595
REMARK  228  A    between atoms: _594  and  _597
REMARK  229  A    between atoms: _597  and  _598
REMARK  230  A    between atoms: _600  and  _602
REMARK  231  A    between atoms: _602  and  _603
REMARK  232  A    between atoms: _605  and  _607
REMARK  233  A    between atoms: _607  and  _608
REMARK  234  A    between atoms: _607  and  _610
REMARK  235  A    between atoms: _610  and  _611
REMARK  236  A    between atoms: _614  and  _616
REMARK  237  A    between atoms: _616  and  _617
REMARK  238  A    between atoms: _616  and  _619
REMARK  239  A    between atoms: _619  and  _620
REMARK  240  A    between atoms: _620  and  _621
REMARK  241  A    between atoms: _626  and  _628
REMARK  242  A    between atoms: _628  and  _629
REMARK  243  A    between atoms: _628  and  _631
REMARK  244  A    between atoms: _631  and  _632
REMARK                            x       y       z     vdW  Elec       q    Type
REMARK                         _______ _______ _______ _____ _____    ______ ____
ROOT
ATOM      1  O   HOH     1      -5.466  30.540  15.919  0.00  0.00    +0.000 OA
ENDROOT
TORSDOF 0
REMARK  Name = ../refined-set-2016/3wq6/3wq6_pocket.pdb
REMARK  244 active torsions:
REMARK  status: ('A' for Active; 'I' for Inactive)
REMARK    1  A    between atoms: _1  and  _3
REMARK    2  A    between atoms: _3  and  _4
REMARK    3  A    between atoms: _7  and  _9
REMARK    4  A    between atoms: _9  and  _10
REMARK    5  A    between atoms: _9  and  _12
REMARK    6  A    between atoms: _12  and  _13
REMARK    7  A    between atoms: _15  and  _17
REMARK    8  A    between atoms: _17  and  _18
REMARK    9  A    between atoms: _17  and  _20
REMARK   10  A    between atoms: _20  and  _21
REMARK   11  A    between atoms: _23  and  _25
REMARK   12  A    between atoms: _25  and  _26
REMARK   13  A    between atoms: _29  and  _31
REMARK   14  A    between atoms: _31  and  _32
REMARK   15  A    between atoms: _31  and  _34
REMARK   16  A    between atoms: _34  and  _35
REMARK   17  A    between atoms: _40  and  _41
REMARK   18  A    between atoms: _43  and  _45
REMARK   19  A    between atoms: _45  and  _46
REMARK   20  A    between atoms: _45  and  _48
REMARK   21  A    between atoms: _48  and  _49
REMARK   22  A    between atoms: _49  and  _50
REMARK   23  A    between atoms: _55  and  _57
REMARK   24  A    between atoms: _57  and  _58
REMARK   25  A    between atoms: _57  and  _60
REMARK   26  A    between atoms: _60  and  _61
REMARK   27  A    between atoms: _67  and  _69
REMARK   28  A    between atoms: _69  and  _70
REMARK   29  A    between atoms: _69  and  _72
REMARK   30  A    between atoms: _72  and  _73
REMARK   31  A    between atoms: _83  and  _85
REMARK   32  A    between atoms: _85  and  _86
REMARK   33  A    between atoms: _85  and  _88
REMARK   34  A    between atoms: _88  and  _89
REMARK   35  A    between atoms: _91  and  _93
REMARK   36  A    between atoms: _93  and  _94
REMARK   37  A    between atoms: _93  and  _96
REMARK   38  A    between atoms: _96  and  _97
REMARK   39  A    between atoms: _97  and  _98
REMARK   40  A    between atoms: _98  and  _99
REMARK   41  A    between atoms: _108  and  _110
REMARK   42  A    between atoms: _110  and  _111
REMARK   43  A    between atoms: _110  and  _113
REMARK   44  A    between atoms: _113  and  _114
REMARK   45  A    between atoms: _117  and  _119
REMARK   46  A    between atoms: _119  and  _120
REMARK   47  A    between atoms: _119  and  _122
REMARK   48  A    between atoms: _122  and  _123
REMARK   49  A    between atoms: _128  and  _130
REMARK   50  A    between atoms: _130  and  _131
REMARK   51  A    between atoms: _130  and  _133
REMARK   52  A    between atoms: _133  and  _134
REMARK   53  A    between atoms: _144  and  _146
REMARK   54  A    between atoms: _146  and  _147
REMARK   55  A    between atoms: _146  and  _149
REMARK   56  A    between atoms: _149  and  _150
REMARK   57  A    between atoms: _155  and  _157
REMARK   58  A    between atoms: _157  and  _158
REMARK   59  A    between atoms: _157  and  _160
REMARK   60  A    between atoms: _160  and  _161
REMARK   61  A    between atoms: _161  and  _162
REMARK   62  A    between atoms: _165  and  _167
REMARK   63  A    between atoms: _167  and  _168
REMARK   64  A    between atoms: _167  and  _170
REMARK   65  A    between atoms: _170  and  _171
REMARK   66  A    between atoms: _181  and  _183
REMARK   67  A    between atoms: _183  and  _184
REMARK   68  A    between atoms: _183  and  _186
REMARK   69  A    between atoms: _186  and  _187
REMARK   70  A    between atoms: _189  and  _191
REMARK   71  A    between atoms: _191  and  _192
REMARK   72  A    between atoms: _191  and  _194
REMARK   73  A    between atoms: _194  and  _195
REMARK   74  A    between atoms: _200  and  _201
REMARK   75  A    between atoms: _203  and  _205
REMARK   76  A    between atoms: _205  and  _206
REMARK   77  A    between atoms: _205  and  _208
REMARK   78  A    between atoms: _208  and  _209
REMARK   79  A    between atoms: _211  and  _213
REMARK   80  A    between atoms: _213  and  _214
REMARK   81  A    between atoms: _213  and  _216
REMARK   82  A    between atoms: _216  and  _217
REMARK   83  A    between atoms: _222  and  _223
REMARK   84  A    between atoms: _225  and  _227
REMARK   85  A    between atoms: _227  and  _228
REMARK   86  A    between atoms: _230  and  _232
REMARK   87  A    between atoms: _232  and  _233
REMARK   88  A    between atoms: _235  and  _237
REMARK   89  A    between atoms: _237  and  _238
REMARK   90  A    between atoms: _237  and  _240
REMARK   91  A    between atoms: _240  and  _241
REMARK   92  A    between atoms: _246  and  _247
REMARK   93  A    between atoms: _249  and  _251
REMARK   94  A    between atoms: _251  and  _252
REMARK   95  A    between atoms: _251  and  _254
REMARK   96  A    between atoms: _254  and  _255
REMARK   97  A    between atoms: _258  and  _260
REMARK   98  A    between atoms: _260  and  _261
REMARK   99  A    between atoms: _264  and  _266
REMARK  100  A    between atoms: _266  and  _267
REMARK  101  A    between atoms: _269  and  _271
REMARK  102  A    between atoms: _271  and  _272
REMARK  103  A    between atoms: _271  and  _274
REMARK  104  A    between atoms: _274  and  _275
REMARK  105  A    between atoms: _278  and  _280
REMARK  106  A    between atoms: _280  and  _281
REMARK  107  A    between atoms: _280  and  _283
REMARK  108  A    between atoms: _283  and  _284
REMARK  109  A    between atoms: _287  and  _289
REMARK  110  A    between atoms: _289  and  _290
REMARK  111  A    between atoms: _289  and  _292
REMARK  112  A    between atoms: _292  and  _293
REMARK  113  A    between atoms: _296  and  _298
REMARK  114  A    between atoms: _298  and  _299
REMARK  115  A    between atoms: _298  and  _301
REMARK  116  A    between atoms: _304  and  _306
REMARK  117  A    between atoms: _306  and  _307
REMARK  118  A    between atoms: _306  and  _309
REMARK  119  A    between atoms: _309  and  _310
REMARK  120  A    between atoms: _313  and  _315
REMARK  121  A    between atoms: _315  and  _316
REMARK  122  A    between atoms: _315  and  _318
REMARK  123  A    between atoms: _318  and  _319
REMARK  124  A    between atoms: _324  and  _325
REMARK  125  A    between atoms: _327  and  _329
REMARK  126  A    between atoms: _329  and  _330
REMARK  127  A    between atoms: _329  and  _332
REMARK  128  A    between atoms: _332  and  _333
REMARK  129  A    between atoms: _333  and  _334
REMARK  130  A    between atoms: _336  and  _338
REMARK  131  A    between atoms: _338  and  _339
REMARK  132  A    between atoms: _338  and  _341
REMARK  133  A    between atoms: _341  and  _342
REMARK  134  A    between atoms: _347  and  _349
REMARK  135  A    between atoms: _349  and  _350
REMARK  136  A    between atoms: _349  and  _352
REMARK  137  A    between atoms: _352  and  _353
REMARK  138  A    between atoms: _358  and  _359
REMARK  139  A    between atoms: _361  and  _363
REMARK  140  A    between atoms: _363  and  _364
REMARK  141  A    between atoms: _363  and  _366
REMARK  142  A    between atoms: _366  and  _367
REMARK  143  A    between atoms: _372  and  _373
REMARK  144  A    between atoms: _375  and  _377
REMARK  145  A    between atoms: _377  and  _378
REMARK  146  A    between atoms: _377  and  _380
REMARK  147  A    between atoms: _380  and  _381
REMARK  148  A    between atoms: _384  and  _386
REMARK  149  A    between atoms: _386  and  _387
REMARK  150  A    between atoms: _386  and  _389
REMARK  151  A    between atoms: _389  and  _390
REMARK  152  A    between atoms: _395  and  _397
REMARK  153  A    between atoms: _397  and  _398
REMARK  154  A    between atoms: _397  and  _400
REMARK  155  A    between atoms: _400  and  _401
REMARK  156  A    between atoms: _401  and  _402
REMARK  157  A    between atoms: _407  and  _409
REMARK  158  A    between atoms: _409  and  _410
REMARK  159  A    between atoms: _409  and  _412
REMARK  160  A    between atoms: _412  and  _413
REMARK  161  A    between atoms: _416  and  _418
REMARK  162  A    between atoms: _418  and  _419
REMARK  163  A    between atoms: _421  and  _423
REMARK  164  A    between atoms: _423  and  _424
REMARK  165  A    between atoms: _423  and  _426
REMARK  166  A    between atoms: _430  and  _431
REMARK  167  A    between atoms: _436  and  _438
REMARK  168  A    between atoms: _438  and  _439
REMARK  169  A    between atoms: _442  and  _444
REMARK  170  A    between atoms: _444  and  _445
REMARK  171  A    between atoms: _444  and  _447
REMARK  172  A    between atoms: _447  and  _448
REMARK  173  A    between atoms: _454  and  _456
REMARK  174  A    between atoms: _456  and  _457
REMARK  175  A    between atoms: _456  and  _459
REMARK  176  A    between atoms: _459  and  _460
REMARK  177  A    between atoms: _463  and  _465
REMARK  178  A    between atoms: _465  and  _466
REMARK  179  A    between atoms: _465  and  _468
REMARK  180  A    between atoms: _468  and  _469
REMARK  181  A    between atoms: _469  and  _470
REMARK  182  A    between atoms: _473  and  _475
REMARK  183  A    between atoms: _475  and  _476
REMARK  184  A    between atoms: _475  and  _478
REMARK  185  A    between atoms: _478  and  _479
REMARK  186  A    between atoms: _484  and  _486
REMARK  187  A    between atoms: _486  and  _487
REMARK  188  A    between atoms: _489  and  _491
REMARK  189  A    between atoms: _491  and  _492
REMARK  190  A    between atoms: _491  and  _494
REMARK  191  A    between atoms: _494  and  _495
REMARK  192  A    between atoms: _495  and  _496
REMARK  193  A    between atoms: _498  and  _500
REMARK  194  A    between atoms: _500  and  _501
REMARK  195  A    between atoms: _503  and  _505
REMARK  196  A    between atoms: _505  and  _506
REMARK  197  A    between atoms: _505  and  _508
REMARK  198  A    between atoms: _508  and  _509
REMARK  199  A    between atoms: _519  and  _521
REMARK  200  A    between atoms: _521  and  _522
REMARK  201  A    between atoms: _525  and  _527
REMARK  202  A    between atoms: _527  and  _528
REMARK  203  A    between atoms: _527  and  _530
REMARK  204  A    between atoms: _530  and  _531
REMARK  205  A    between atoms: _534  and  _536
REMARK  206  A    between atoms: _536  and  _537
REMARK  207  A    between atoms: _536  and  _539
REMARK  208  A    between atoms: _539  and  _540
REMARK  209  A    between atoms: _545  and  _547
REMARK  210  A    between atoms: _547  and  _548
REMARK  211  A    between atoms: _547  and  _550
REMARK  212  A    between atoms: _550  and  _551
REMARK  213  A    between atoms: _557  and  _559
REMARK  214  A    between atoms: _559  and  _560
REMARK  215  A    between atoms: _559  and  _562
REMARK  216  A    between atoms: _562  and  _563
REMARK  217  A    between atoms: _563  and  _564
REMARK  218  A    between atoms: _567  and  _569
REMARK  219  A    between atoms: _569  and  _570
REMARK  220  A    between atoms: _569  and  _572
REMARK  221  A    between atoms: _572  and  _573
REMARK  222  A    between atoms: _583  and  _585
REMARK  223  A    between atoms: _585  and  _586
REMARK  224  A    between atoms: _585  and  _588
REMARK  225  A    between atoms: _588  and  _589
REMARK  226  A    between atoms: _592  and  _594
REMARK  227  A    between atoms: _594  and  _595
REMARK  228  A    between atoms: _594  and  _597
REMARK  229  A    between atoms: _597  and  _598
REMARK  230  A    between atoms: _600  and  _602
REMARK  231  A    between atoms: _602  and  _603
REMARK  232  A    between atoms: _605  and  _607
REMARK  233  A    between atoms: _607  and  _608
REMARK  234  A    between atoms: _607  and  _610
REMARK  235  A    between atoms: _610  and  _611
REMARK  236  A    between atoms: _614  and  _616
REMARK  237  A    between atoms: _616  and  _617
REMARK  238  A    between atoms: _616  and  _619
REMARK  239  A    between atoms: _619  and  _620
REMARK  240  A    between atoms: _620  and  _621
REMARK  241  A    between atoms: _626  and  _628
REMARK  242  A    between atoms: _628  and  _629
REMARK  243  A    between atoms: _628  and  _631
REMARK  244  A    between atoms: _631  and  _632
REMARK                            x       y       z     vdW  Elec       q    Type
REMARK                         _______ _______ _______ _____ _____    ______ ____
ROOT
ATOM      1  O   HOH     1      -5.455  35.984  16.118  0.00  0.00    +0.000 OA
ENDROOT
TORSDOF 0
REMARK  Name = ../refined-set-2016/3wq6/3wq6_pocket.pdb
REMARK  244 active torsions:
REMARK  status: ('A' for Active; 'I' for Inactive)
REMARK    1  A    between atoms: _1  and  _3
REMARK    2  A    between atoms: _3  and  _4
REMARK    3  A    between atoms: _7  and  _9
REMARK    4  A    between atoms: _9  and  _10
REMARK    5  A    between atoms: _9  and  _12
REMARK    6  A    between atoms: _12  and  _13
REMARK    7  A    between atoms: _15  and  _17
REMARK    8  A    between atoms: _17  and  _18
REMARK    9  A    between atoms: _17  and  _20
REMARK   10  A    between atoms: _20  and  _21
REMARK   11  A    between atoms: _23  and  _25
REMARK   12  A    between atoms: _25  and  _26
REMARK   13  A    between atoms: _29  and  _31
REMARK   14  A    between atoms: _31  and  _32
REMARK   15  A    between atoms: _31  and  _34
REMARK   16  A    between atoms: _34  and  _35
REMARK   17  A    between atoms: _40  and  _41
REMARK   18  A    between atoms: _43  and  _45
REMARK   19  A    between atoms: _45  and  _46
REMARK   20  A    between atoms: _45  and  _48
REMARK   21  A    between atoms: _48  and  _49
REMARK   22  A    between atoms: _49  and  _50
REMARK   23  A    between atoms: _55  and  _57
REMARK   24  A    between atoms: _57  and  _58
REMARK   25  A    between atoms: _57  and  _60
REMARK   26  A    between atoms: _60  and  _61
REMARK   27  A    between atoms: _67  and  _69
REMARK   28  A    between atoms: _69  and  _70
REMARK   29  A    between atoms: _69  and  _72
REMARK   30  A    between atoms: _72  and  _73
REMARK   31  A    between atoms: _83  and  _85
REMARK   32  A    between atoms: _85  and  _86
REMARK   33  A    between atoms: _85  and  _88
REMARK   34  A    between atoms: _88  and  _89
REMARK   35  A    between atoms: _91  and  _93
REMARK   36  A    between atoms: _93  and  _94
REMARK   37  A    between atoms: _93  and  _96
REMARK   38  A    between atoms: _96  and  _97
REMARK   39  A    between atoms: _97  and  _98
REMARK   40  A    between atoms: _98  and  _99
REMARK   41  A    between atoms: _108  and  _110
REMARK   42  A    between atoms: _110  and  _111
REMARK   43  A    between atoms: _110  and  _113
REMARK   44  A    between atoms: _113  and  _114
REMARK   45  A    between atoms: _117  and  _119
REMARK   46  A    between atoms: _119  and  _120
REMARK   47  A    between atoms: _119  and  _122
REMARK   48  A    between atoms: _122  and  _123
REMARK   49  A    between atoms: _128  and  _130
REMARK   50  A    between atoms: _130  and  _131
REMARK   51  A    between atoms: _130  and  _133
REMARK   52  A    between atoms: _133  and  _134
REMARK   53  A    between atoms: _144  and  _146
REMARK   54  A    between atoms: _146  and  _147
REMARK   55  A    between atoms: _146  and  _149
REMARK   56  A    between atoms: _149  and  _150
REMARK   57  A    between atoms: _155  and  _157
REMARK   58  A    between atoms: _157  and  _158
REMARK   59  A    between atoms: _157  and  _160
REMARK   60  A    between atoms: _160  and  _161
REMARK   61  A    between atoms: _161  and  _162
REMARK   62  A    between atoms: _165  and  _167
REMARK   63  A    between atoms: _167  and  _168
REMARK   64  A    between atoms: _167  and  _170
REMARK   65  A    between atoms: _170  and  _171
REMARK   66  A    between atoms: _181  and  _183
REMARK   67  A    between atoms: _183  and  _184
REMARK   68  A    between atoms: _183  and  _186
REMARK   69  A    between atoms: _186  and  _187
REMARK   70  A    between atoms: _189  and  _191
REMARK   71  A    between atoms: _191  and  _192
REMARK   72  A    between atoms: _191  and  _194
REMARK   73  A    between atoms: _194  and  _195
REMARK   74  A    between atoms: _200  and  _201
REMARK   75  A    between atoms: _203  and  _205
REMARK   76  A    between atoms: _205  and  _206
REMARK   77  A    between atoms: _205  and  _208
REMARK   78  A    between atoms: _208  and  _209
REMARK   79  A    between atoms: _211  and  _213
REMARK   80  A    between atoms: _213  and  _214
REMARK   81  A    between atoms: _213  and  _216
REMARK   82  A    between atoms: _216  and  _217
REMARK   83  A    between atoms: _222  and  _223
REMARK   84  A    between atoms: _225  and  _227
REMARK   85  A    between atoms: _227  and  _228
REMARK   86  A    between atoms: _230  and  _232
REMARK   87  A    between atoms: _232  and  _233
REMARK   88  A    between atoms: _235  and  _237
REMARK   89  A    between atoms: _237  and  _238
REMARK   90  A    between atoms: _237  and  _240
REMARK   91  A    between atoms: _240  and  _241
REMARK   92  A    between atoms: _246  and  _247
REMARK   93  A    between atoms: _249  and  _251
REMARK   94  A    between atoms: _251  and  _252
REMARK   95  A    between atoms: _251  and  _254
REMARK   96  A    between atoms: _254  and  _255
REMARK   97  A    between atoms: _258  and  _260
REMARK   98  A    between atoms: _260  and  _261
REMARK   99  A    between atoms: _264  and  _266
REMARK  100  A    between atoms: _266  and  _267
REMARK  101  A    between atoms: _269  and  _271
REMARK  102  A    between atoms: _271  and  _272
REMARK  103  A    between atoms: _271  and  _274
REMARK  104  A    between atoms: _274  and  _275
REMARK  105  A    between atoms: _278  and  _280
REMARK  106  A    between atoms: _280  and  _281
REMARK  107  A    between atoms: _280  and  _283
REMARK  108  A    between atoms: _283  and  _284
REMARK  109  A    between atoms: _287  and  _289
REMARK  110  A    between atoms: _289  and  _290
REMARK  111  A    between atoms: _289  and  _292
REMARK  112  A    between atoms: _292  and  _293
REMARK  113  A    between atoms: _296  and  _298
REMARK  114  A    between atoms: _298  and  _299
REMARK  115  A    between atoms: _298  and  _301
REMARK  116  A    between atoms: _304  and  _306
REMARK  117  A    between atoms: _306  and  _307
REMARK  118  A    between atoms: _306  and  _309
REMARK  119  A    between atoms: _309  and  _310
REMARK  120  A    between atoms: _313  and  _315
REMARK  121  A    between atoms: _315  and  _316
REMARK  122  A    between atoms: _315  and  _318
REMARK  123  A    between atoms: _318  and  _319
REMARK  124  A    between atoms: _324  and  _325
REMARK  125  A    between atoms: _327  and  _329
REMARK  126  A    between atoms: _329  and  _330
REMARK  127  A    between atoms: _329  and  _332
REMARK  128  A    between atoms: _332  and  _333
REMARK  129  A    between atoms: _333  and  _334
REMARK  130  A    between atoms: _336  and  _338
REMARK  131  A    between atoms: _338  and  _339
REMARK  132  A    between atoms: _338  and  _341
REMARK  133  A    between atoms: _341  and  _342
REMARK  134  A    between atoms: _347  and  _349
REMARK  135  A    between atoms: _349  and  _350
REMARK  136  A    between atoms: _349  and  _352
REMARK  137  A    between atoms: _352  and  _353
REMARK  138  A    between atoms: _358  and  _359
REMARK  139  A    between atoms: _361  and  _363
REMARK  140  A    between atoms: _363  and  _364
REMARK  141  A    between atoms: _363  and  _366
REMARK  142  A    between atoms: _366  and  _367
REMARK  143  A    between atoms: _372  and  _373
REMARK  144  A    between atoms: _375  and  _377
REMARK  145  A    between atoms: _377  and  _378
REMARK  146  A    between atoms: _377  and  _380
REMARK  147  A    between atoms: _380  and  _381
REMARK  148  A    between atoms: _384  and  _386
REMARK  149  A    between atoms: _386  and  _387
REMARK  150  A    between atoms: _386  and  _389
REMARK  151  A    between atoms: _389  and  _390
REMARK  152  A    between atoms: _395  and  _397
REMARK  153  A    between atoms: _397  and  _398
REMARK  154  A    between atoms: _397  and  _400
REMARK  155  A    between atoms: _400  and  _401
REMARK  156  A    between atoms: _401  and  _402
REMARK  157  A    between atoms: _407  and  _409
REMARK  158  A    between atoms: _409  and  _410
REMARK  159  A    between atoms: _409  and  _412
REMARK  160  A    between atoms: _412  and  _413
REMARK  161  A    between atoms: _416  and  _418
REMARK  162  A    between atoms: _418  and  _419
REMARK  163  A    between atoms: _421  and  _423
REMARK  164  A    between atoms: _423  and  _424
REMARK  165  A    between atoms: _423  and  _426
REMARK  166  A    between atoms: _430  and  _431
REMARK  167  A    between atoms: _436  and  _438
REMARK  168  A    between atoms: _438  and  _439
REMARK  169  A    between atoms: _442  and  _444
REMARK  170  A    between atoms: _444  and  _445
REMARK  171  A    between atoms: _444  and  _447
REMARK  172  A    between atoms: _447  and  _448
REMARK  173  A    between atoms: _454  and  _456
REMARK  174  A    between atoms: _456  and  _457
REMARK  175  A    between atoms: _456  and  _459
REMARK  176  A    between atoms: _459  and  _460
REMARK  177  A    between atoms: _463  and  _465
REMARK  178  A    between atoms: _465  and  _466
REMARK  179  A    between atoms: _465  and  _468
REMARK  180  A    between atoms: _468  and  _469
REMARK  181  A    between atoms: _469  and  _470
REMARK  182  A    between atoms: _473  and  _475
REMARK  183  A    between atoms: _475  and  _476
REMARK  184  A    between atoms: _475  and  _478
REMARK  185  A    between atoms: _478  and  _479
REMARK  186  A    between atoms: _484  and  _486
REMARK  187  A    between atoms: _486  and  _487
REMARK  188  A    between atoms: _489  and  _491
REMARK  189  A    between atoms: _491  and  _492
REMARK  190  A    between atoms: _491  and  _494
REMARK  191  A    between atoms: _494  and  _495
REMARK  192  A    between atoms: _495  and  _496
REMARK  193  A    between atoms: _498  and  _500
REMARK  194  A    between atoms: _500  and  _501
REMARK  195  A    between atoms: _503  and  _505
REMARK  196  A    between atoms: _505  and  _506
REMARK  197  A    between atoms: _505  and  _508
REMARK  198  A    between atoms: _508  and  _509
REMARK  199  A    between atoms: _519  and  _521
REMARK  200  A    between atoms: _521  and  _522
REMARK  201  A    between atoms: _525  and  _527
REMARK  202  A    between atoms: _527  and  _528
REMARK  203  A    between atoms: _527  and  _530
REMARK  204  A    between atoms: _530  and  _531
REMARK  205  A    between atoms: _534  and  _536
REMARK  206  A    between atoms: _536  and  _537
REMARK  207  A    between atoms: _536  and  _539
REMARK  208  A    between atoms: _539  and  _540
REMARK  209  A    between atoms: _545  and  _547
REMARK  210  A    between atoms: _547  and  _548
REMARK  211  A    between atoms: _547  and  _550
REMARK  212  A    between atoms: _550  and  _551
REMARK  213  A    between atoms: _557  and  _559
REMARK  214  A    between atoms: _559  and  _560
REMARK  215  A    between atoms: _559  and  _562
REMARK  216  A    between atoms: _562  and  _563
REMARK  217  A    between atoms: _563  and  _564
REMARK  218  A    between atoms: _567  and  _569
REMARK  219  A    between atoms: _569  and  _570
REMARK  220  A    between atoms: _569  and  _572
REMARK  221  A    between atoms: _572  and  _573
REMARK  222  A    between atoms: _583  and  _585
REMARK  223  A    between atoms: _585  and  _586
REMARK  224  A    between atoms: _585  and  _588
REMARK  225  A    between atoms: _588  and  _589
REMARK  226  A    between atoms: _592  and  _594
REMARK  227  A    between atoms: _594  and  _595
REMARK  228  A    between atoms: _594  and  _597
REMARK  229  A    between atoms: _597  and  _598
REMARK  230  A    between atoms: _600  and  _602
REMARK  231  A    between atoms: _602  and  _603
REMARK  232  A    between atoms: _605  and  _607
REMARK  233  A    between atoms: _607  and  _608
REMARK  234  A    between atoms: _607  and  _610
REMARK  235  A    between atoms: _610  and  _611
REMARK  236  A    between atoms: _614  and  _616
REMARK  237  A    between atoms: _616  and  _617
REMARK  238  A    between atoms: _616  and  _619
REMARK  239  A    between atoms: _619  and  _620
REMARK  240  A    between atoms: _620  and  _621
REMARK  241  A    between atoms: _626  and  _628
REMARK  242  A    between atoms: _628  and  _629
REMARK  243  A    between atoms: _628  and  _631
REMARK  244  A    between atoms: _631  and  _632
REMARK                            x       y       z     vdW  Elec       q    Type
REMARK                         _______ _______ _______ _____ _____    ______ ____
ROOT
ATOM      1  O   HOH     1      -4.828  34.371   8.846  0.00  0.00    +0.000 OA
ENDROOT
TORSDOF 0
REMARK  Name = ../refined-set-2016/3wq6/3wq6_pocket.pdb
REMARK  244 active torsions:
REMARK  status: ('A' for Active; 'I' for Inactive)
REMARK    1  A    between atoms: _1  and  _3
REMARK    2  A    between atoms: _3  and  _4
REMARK    3  A    between atoms: _7  and  _9
REMARK    4  A    between atoms: _9  and  _10
REMARK    5  A    between atoms: _9  and  _12
REMARK    6  A    between atoms: _12  and  _13
REMARK    7  A    between atoms: _15  and  _17
REMARK    8  A    between atoms: _17  and  _18
REMARK    9  A    between atoms: _17  and  _20
REMARK   10  A    between atoms: _20  and  _21
REMARK   11  A    between atoms: _23  and  _25
REMARK   12  A    between atoms: _25  and  _26
REMARK   13  A    between atoms: _29  and  _31
REMARK   14  A    between atoms: _31  and  _32
REMARK   15  A    between atoms: _31  and  _34
REMARK   16  A    between atoms: _34  and  _35
REMARK   17  A    between atoms: _40  and  _41
REMARK   18  A    between atoms: _43  and  _45
REMARK   19  A    between atoms: _45  and  _46
REMARK   20  A    between atoms: _45  and  _48
REMARK   21  A    between atoms: _48  and  _49
REMARK   22  A    between atoms: _49  and  _50
REMARK   23  A    between atoms: _55  and  _57
REMARK   24  A    between atoms: _57  and  _58
REMARK   25  A    between atoms: _57  and  _60
REMARK   26  A    between atoms: _60  and  _61
REMARK   27  A    between atoms: _67  and  _69
REMARK   28  A    between atoms: _69  and  _70
REMARK   29  A    between atoms: _69  and  _72
REMARK   30  A    between atoms: _72  and  _73
REMARK   31  A    between atoms: _83  and  _85
REMARK   32  A    between atoms: _85  and  _86
REMARK   33  A    between atoms: _85  and  _88
REMARK   34  A    between atoms: _88  and  _89
REMARK   35  A    between atoms: _91  and  _93
REMARK   36  A    between atoms: _93  and  _94
REMARK   37  A    between atoms: _93  and  _96
REMARK   38  A    between atoms: _96  and  _97
REMARK   39  A    between atoms: _97  and  _98
REMARK   40  A    between atoms: _98  and  _99
REMARK   41  A    between atoms: _108  and  _110
REMARK   42  A    between atoms: _110  and  _111
REMARK   43  A    between atoms: _110  and  _113
REMARK   44  A    between atoms: _113  and  _114
REMARK   45  A    between atoms: _117  and  _119
REMARK   46  A    between atoms: _119  and  _120
REMARK   47  A    between atoms: _119  and  _122
REMARK   48  A    between atoms: _122  and  _123
REMARK   49  A    between atoms: _128  and  _130
REMARK   50  A    between atoms: _130  and  _131
REMARK   51  A    between atoms: _130  and  _133
REMARK   52  A    between atoms: _133  and  _134
REMARK   53  A    between atoms: _144  and  _146
REMARK   54  A    between atoms: _146  and  _147
REMARK   55  A    between atoms: _146  and  _149
REMARK   56  A    between atoms: _149  and  _150
REMARK   57  A    between atoms: _155  and  _157
REMARK   58  A    between atoms: _157  and  _158
REMARK   59  A    between atoms: _157  and  _160
REMARK   60  A    between atoms: _160  and  _161
REMARK   61  A    between atoms: _161  and  _162
REMARK   62  A    between atoms: _165  and  _167
REMARK   63  A    between atoms: _167  and  _168
REMARK   64  A    between atoms: _167  and  _170
REMARK   65  A    between atoms: _170  and  _171
REMARK   66  A    between atoms: _181  and  _183
REMARK   67  A    between atoms: _183  and  _184
REMARK   68  A    between atoms: _183  and  _186
REMARK   69  A    between atoms: _186  and  _187
REMARK   70  A    between atoms: _189  and  _191
REMARK   71  A    between atoms: _191  and  _192
REMARK   72  A    between atoms: _191  and  _194
REMARK   73  A    between atoms: _194  and  _195
REMARK   74  A    between atoms: _200  and  _201
REMARK   75  A    between atoms: _203  and  _205
REMARK   76  A    between atoms: _205  and  _206
REMARK   77  A    between atoms: _205  and  _208
REMARK   78  A    between atoms: _208  and  _209
REMARK   79  A    between atoms: _211  and  _213
REMARK   80  A    between atoms: _213  and  _214
REMARK   81  A    between atoms: _213  and  _216
REMARK   82  A    between atoms: _216  and  _217
REMARK   83  A    between atoms: _222  and  _223
REMARK   84  A    between atoms: _225  and  _227
REMARK   85  A    between atoms: _227  and  _228
REMARK   86  A    between atoms: _230  and  _232
REMARK   87  A    between atoms: _232  and  _233
REMARK   88  A    between atoms: _235  and  _237
REMARK   89  A    between atoms: _237  and  _238
REMARK   90  A    between atoms: _237  and  _240
REMARK   91  A    between atoms: _240  and  _241
REMARK   92  A    between atoms: _246  and  _247
REMARK   93  A    between atoms: _249  and  _251
REMARK   94  A    between atoms: _251  and  _252
REMARK   95  A    between atoms: _251  and  _254
REMARK   96  A    between atoms: _254  and  _255
REMARK   97  A    between atoms: _258  and  _260
REMARK   98  A    between atoms: _260  and  _261
REMARK   99  A    between atoms: _264  and  _266
REMARK  100  A    between atoms: _266  and  _267
REMARK  101  A    between atoms: _269  and  _271
REMARK  102  A    between atoms: _271  and  _272
REMARK  103  A    between atoms: _271  and  _274
REMARK  104  A    between atoms: _274  and  _275
REMARK  105  A    between atoms: _278  and  _280
REMARK  106  A    between atoms: _280  and  _281
REMARK  107  A    between atoms: _280  and  _283
REMARK  108  A    between atoms: _283  and  _284
REMARK  109  A    between atoms: _287  and  _289
REMARK  110  A    between atoms: _289  and  _290
REMARK  111  A    between atoms: _289  and  _292
REMARK  112  A    between atoms: _292  and  _293
REMARK  113  A    between atoms: _296  and  _298
REMARK  114  A    between atoms: _298  and  _299
REMARK  115  A    between atoms: _298  and  _301
REMARK  116  A    between atoms: _304  and  _306
REMARK  117  A    between atoms: _306  and  _307
REMARK  118  A    between atoms: _306  and  _309
REMARK  119  A    between atoms: _309  and  _310
REMARK  120  A    between atoms: _313  and  _315
REMARK  121  A    between atoms: _315  and  _316
REMARK  122  A    between atoms: _315  and  _318
REMARK  123  A    between atoms: _318  and  _319
REMARK  124  A    between atoms: _324  and  _325
REMARK  125  A    between atoms: _327  and  _329
REMARK  126  A    between atoms: _329  and  _330
REMARK  127  A    between atoms: _329  and  _332
REMARK  128  A    between atoms: _332  and  _333
REMARK  129  A    between atoms: _333  and  _334
REMARK  130  A    between atoms: _336  and  _338
REMARK  131  A    between atoms: _338  and  _339
REMARK  132  A    between atoms: _338  and  _341
REMARK  133  A    between atoms: _341  and  _342
REMARK  134  A    between atoms: _347  and  _349
REMARK  135  A    between atoms: _349  and  _350
REMARK  136  A    between atoms: _349  and  _352
REMARK  137  A    between atoms: _352  and  _353
REMARK  138  A    between atoms: _358  and  _359
REMARK  139  A    between atoms: _361  and  _363
REMARK  140  A    between atoms: _363  and  _364
REMARK  141  A    between atoms: _363  and  _366
REMARK  142  A    between atoms: _366  and  _367
REMARK  143  A    between atoms: _372  and  _373
REMARK  144  A    between atoms: _375  and  _377
REMARK  145  A    between atoms: _377  and  _378
REMARK  146  A    between atoms: _377  and  _380
REMARK  147  A    between atoms: _380  and  _381
REMARK  148  A    between atoms: _384  and  _386
REMARK  149  A    between atoms: _386  and  _387
REMARK  150  A    between atoms: _386  and  _389
REMARK  151  A    between atoms: _389  and  _390
REMARK  152  A    between atoms: _395  and  _397
REMARK  153  A    between atoms: _397  and  _398
REMARK  154  A    between atoms: _397  and  _400
REMARK  155  A    between atoms: _400  and  _401
REMARK  156  A    between atoms: _401  and  _402
REMARK  157  A    between atoms: _407  and  _409
REMARK  158  A    between atoms: _409  and  _410
REMARK  159  A    between atoms: _409  and  _412
REMARK  160  A    between atoms: _412  and  _413
REMARK  161  A    between atoms: _416  and  _418
REMARK  162  A    between atoms: _418  and  _419
REMARK  163  A    between atoms: _421  and  _423
REMARK  164  A    between atoms: _423  and  _424
REMARK  165  A    between atoms: _423  and  _426
REMARK  166  A    between atoms: _430  and  _431
REMARK  167  A    between atoms: _436  and  _438
REMARK  168  A    between atoms: _438  and  _439
REMARK  169  A    between atoms: _442  and  _444
REMARK  170  A    between atoms: _444  and  _445
REMARK  171  A    between atoms: _444  and  _447
REMARK  172  A    between atoms: _447  and  _448
REMARK  173  A    between atoms: _454  and  _456
REMARK  174  A    between atoms: _456  and  _457
REMARK  175  A    between atoms: _456  and  _459
REMARK  176  A    between atoms: _459  and  _460
REMARK  177  A    between atoms: _463  and  _465
REMARK  178  A    between atoms: _465  and  _466
REMARK  179  A    between atoms: _465  and  _468
REMARK  180  A    between atoms: _468  and  _469
REMARK  181  A    between atoms: _469  and  _470
REMARK  182  A    between atoms: _473  and  _475
REMARK  183  A    between atoms: _475  and  _476
REMARK  184  A    between atoms: _475  and  _478
REMARK  185  A    between atoms: _478  and  _479
REMARK  186  A    between atoms: _484  and  _486
REMARK  187  A    between atoms: _486  and  _487
REMARK  188  A    between atoms: _489  and  _491
REMARK  189  A    between atoms: _491  and  _492
REMARK  190  A    between atoms: _491  and  _494
REMARK  191  A    between atoms: _494  and  _495
REMARK  192  A    between atoms: _495  and  _496
REMARK  193  A    between atoms: _498  and  _500
REMARK  194  A    between atoms: _500  and  _501
REMARK  195  A    between atoms: _503  and  _505
REMARK  196  A    between atoms: _505  and  _506
REMARK  197  A    between atoms: _505  and  _508
REMARK  198  A    between atoms: _508  and  _509
REMARK  199  A    between atoms: _519  and  _521
REMARK  200  A    between atoms: _521  and  _522
REMARK  201  A    between atoms: _525  and  _527
REMARK  202  A    between atoms: _527  and  _528
REMARK  203  A    between atoms: _527  and  _530
REMARK  204  A    between atoms: _530  and  _531
REMARK  205  A    between atoms: _534  and  _536
REMARK  206  A    between atoms: _536  and  _537
REMARK  207  A    between atoms: _536  and  _539
REMARK  208  A    between atoms: _539  and  _540
REMARK  209  A    between atoms: _545  and  _547
REMARK  210  A    between atoms: _547  and  _548
REMARK  211  A    between atoms: _547  and  _550
REMARK  212  A    between atoms: _550  and  _551
REMARK  213  A    between atoms: _557  and  _559
REMARK  214  A    between atoms: _559  and  _560
REMARK  215  A    between atoms: _559  and  _562
REMARK  216  A    between atoms: _562  and  _563
REMARK  217  A    between atoms: _563  and  _564
REMARK  218  A    between atoms: _567  and  _569
REMARK  219  A    between atoms: _569  and  _570
REMARK  220  A    between atoms: _569  and  _572
REMARK  221  A    between atoms: _572  and  _573
REMARK  222  A    between atoms: _583  and  _585
REMARK  223  A    between atoms: _585  and  _586
REMARK  224  A    between atoms: _585  and  _588
REMARK  225  A    between atoms: _588  and  _589
REMARK  226  A    between atoms: _592  and  _594
REMARK  227  A    between atoms: _594  and  _595
REMARK  228  A    between atoms: _594  and  _597
REMARK  229  A    between atoms: _597  and  _598
REMARK  230  A    between atoms: _600  and  _602
REMARK  231  A    between atoms: _602  and  _603
REMARK  232  A    between atoms: _605  and  _607
REMARK  233  A    between atoms: _607  and  _608
REMARK  234  A    between atoms: _607  and  _610
REMARK  235  A    between atoms: _610  and  _611
REMARK  236  A    between atoms: _614  and  _616
REMARK  237  A    between atoms: _616  and  _617
REMARK  238  A    between atoms: _616  and  _619
REMARK  239  A    between atoms: _619  and  _620
REMARK  240  A    between atoms: _620  and  _621
REMARK  241  A    between atoms: _626  and  _628
REMARK  242  A    between atoms: _628  and  _629
REMARK  243  A    between atoms: _628  and  _631
REMARK  244  A    between atoms: _631  and  _632
REMARK                            x       y       z     vdW  Elec       q    Type
REMARK                         _______ _______ _______ _____ _____    ______ ____
ROOT
ATOM      1  O   HOH     1       1.493  31.938  10.085  0.00  0.00    +0.000 OA
ENDROOT
TORSDOF 0
REMARK  Name = ../refined-set-2016/3wq6/3wq6_pocket.pdb
REMARK  244 active torsions:
REMARK  status: ('A' for Active; 'I' for Inactive)
REMARK    1  A    between atoms: _1  and  _3
REMARK    2  A    between atoms: _3  and  _4
REMARK    3  A    between atoms: _7  and  _9
REMARK    4  A    between atoms: _9  and  _10
REMARK    5  A    between atoms: _9  and  _12
REMARK    6  A    between atoms: _12  and  _13
REMARK    7  A    between atoms: _15  and  _17
REMARK    8  A    between atoms: _17  and  _18
REMARK    9  A    between atoms: _17  and  _20
REMARK   10  A    between atoms: _20  and  _21
REMARK   11  A    between atoms: _23  and  _25
REMARK   12  A    between atoms: _25  and  _26
REMARK   13  A    between atoms: _29  and  _31
REMARK   14  A    between atoms: _31  and  _32
REMARK   15  A    between atoms: _31  and  _34
REMARK   16  A    between atoms: _34  and  _35
REMARK   17  A    between atoms: _40  and  _41
REMARK   18  A    between atoms: _43  and  _45
REMARK   19  A    between atoms: _45  and  _46
REMARK   20  A    between atoms: _45  and  _48
REMARK   21  A    between atoms: _48  and  _49
REMARK   22  A    between atoms: _49  and  _50
REMARK   23  A    between atoms: _55  and  _57
REMARK   24  A    between atoms: _57  and  _58
REMARK   25  A    between atoms: _57  and  _60
REMARK   26  A    between atoms: _60  and  _61
REMARK   27  A    between atoms: _67  and  _69
REMARK   28  A    between atoms: _69  and  _70
REMARK   29  A    between atoms: _69  and  _72
REMARK   30  A    between atoms: _72  and  _73
REMARK   31  A    between atoms: _83  and  _85
REMARK   32  A    between atoms: _85  and  _86
REMARK   33  A    between atoms: _85  and  _88
REMARK   34  A    between atoms: _88  and  _89
REMARK   35  A    between atoms: _91  and  _93
REMARK   36  A    between atoms: _93  and  _94
REMARK   37  A    between atoms: _93  and  _96
REMARK   38  A    between atoms: _96  and  _97
REMARK   39  A    between atoms: _97  and  _98
REMARK   40  A    between atoms: _98  and  _99
REMARK   41  A    between atoms: _108  and  _110
REMARK   42  A    between atoms: _110  and  _111
REMARK   43  A    between atoms: _110  and  _113
REMARK   44  A    between atoms: _113  and  _114
REMARK   45  A    between atoms: _117  and  _119
REMARK   46  A    between atoms: _119  and  _120
REMARK   47  A    between atoms: _119  and  _122
REMARK   48  A    between atoms: _122  and  _123
REMARK   49  A    between atoms: _128  and  _130
REMARK   50  A    between atoms: _130  and  _131
REMARK   51  A    between atoms: _130  and  _133
REMARK   52  A    between atoms: _133  and  _134
REMARK   53  A    between atoms: _144  and  _146
REMARK   54  A    between atoms: _146  and  _147
REMARK   55  A    between atoms: _146  and  _149
REMARK   56  A    between atoms: _149  and  _150
REMARK   57  A    between atoms: _155  and  _157
REMARK   58  A    between atoms: _157  and  _158
REMARK   59  A    between atoms: _157  and  _160
REMARK   60  A    between atoms: _160  and  _161
REMARK   61  A    between atoms: _161  and  _162
REMARK   62  A    between atoms: _165  and  _167
REMARK   63  A    between atoms: _167  and  _168
REMARK   64  A    between atoms: _167  and  _170
REMARK   65  A    between atoms: _170  and  _171
REMARK   66  A    between atoms: _181  and  _183
REMARK   67  A    between atoms: _183  and  _184
REMARK   68  A    between atoms: _183  and  _186
REMARK   69  A    between atoms: _186  and  _187
REMARK   70  A    between atoms: _189  and  _191
REMARK   71  A    between atoms: _191  and  _192
REMARK   72  A    between atoms: _191  and  _194
REMARK   73  A    between atoms: _194  and  _195
REMARK   74  A    between atoms: _200  and  _201
REMARK   75  A    between atoms: _203  and  _205
REMARK   76  A    between atoms: _205  and  _206
REMARK   77  A    between atoms: _205  and  _208
REMARK   78  A    between atoms: _208  and  _209
REMARK   79  A    between atoms: _211  and  _213
REMARK   80  A    between atoms: _213  and  _214
REMARK   81  A    between atoms: _213  and  _216
REMARK   82  A    between atoms: _216  and  _217
REMARK   83  A    between atoms: _222  and  _223
REMARK   84  A    between atoms: _225  and  _227
REMARK   85  A    between atoms: _227  and  _228
REMARK   86  A    between atoms: _230  and  _232
REMARK   87  A    between atoms: _232  and  _233
REMARK   88  A    between atoms: _235  and  _237
REMARK   89  A    between atoms: _237  and  _238
REMARK   90  A    between atoms: _237  and  _240
REMARK   91  A    between atoms: _240  and  _241
REMARK   92  A    between atoms: _246  and  _247
REMARK   93  A    between atoms: _249  and  _251
REMARK   94  A    between atoms: _251  and  _252
REMARK   95  A    between atoms: _251  and  _254
REMARK   96  A    between atoms: _254  and  _255
REMARK   97  A    between atoms: _258  and  _260
REMARK   98  A    between atoms: _260  and  _261
REMARK   99  A    between atoms: _264  and  _266
REMARK  100  A    between atoms: _266  and  _267
REMARK  101  A    between atoms: _269  and  _271
REMARK  102  A    between atoms: _271  and  _272
REMARK  103  A    between atoms: _271  and  _274
REMARK  104  A    between atoms: _274  and  _275
REMARK  105  A    between atoms: _278  and  _280
REMARK  106  A    between atoms: _280  and  _281
REMARK  107  A    between atoms: _280  and  _283
REMARK  108  A    between atoms: _283  and  _284
REMARK  109  A    between atoms: _287  and  _289
REMARK  110  A    between atoms: _289  and  _290
REMARK  111  A    between atoms: _289  and  _292
REMARK  112  A    between atoms: _292  and  _293
REMARK  113  A    between atoms: _296  and  _298
REMARK  114  A    between atoms: _298  and  _299
REMARK  115  A    between atoms: _298  and  _301
REMARK  116  A    between atoms: _304  and  _306
REMARK  117  A    between atoms: _306  and  _307
REMARK  118  A    between atoms: _306  and  _309
REMARK  119  A    between atoms: _309  and  _310
REMARK  120  A    between atoms: _313  and  _315
REMARK  121  A    between atoms: _315  and  _316
REMARK  122  A    between atoms: _315  and  _318
REMARK  123  A    between atoms: _318  and  _319
REMARK  124  A    between atoms: _324  and  _325
REMARK  125  A    between atoms: _327  and  _329
REMARK  126  A    between atoms: _329  and  _330
REMARK  127  A    between atoms: _329  and  _332
REMARK  128  A    between atoms: _332  and  _333
REMARK  129  A    between atoms: _333  and  _334
REMARK  130  A    between atoms: _336  and  _338
REMARK  131  A    between atoms: _338  and  _339
REMARK  132  A    between atoms: _338  and  _341
REMARK  133  A    between atoms: _341  and  _342
REMARK  134  A    between atoms: _347  and  _349
REMARK  135  A    between atoms: _349  and  _350
REMARK  136  A    between atoms: _349  and  _352
REMARK  137  A    between atoms: _352  and  _353
REMARK  138  A    between atoms: _358  and  _359
REMARK  139  A    between atoms: _361  and  _363
REMARK  140  A    between atoms: _363  and  _364
REMARK  141  A    between atoms: _363  and  _366
REMARK  142  A    between atoms: _366  and  _367
REMARK  143  A    between atoms: _372  and  _373
REMARK  144  A    between atoms: _375  and  _377
REMARK  145  A    between atoms: _377  and  _378
REMARK  146  A    between atoms: _377  and  _380
REMARK  147  A    between atoms: _380  and  _381
REMARK  148  A    between atoms: _384  and  _386
REMARK  149  A    between atoms: _386  and  _387
REMARK  150  A    between atoms: _386  and  _389
REMARK  151  A    between atoms: _389  and  _390
REMARK  152  A    between atoms: _395  and  _397
REMARK  153  A    between atoms: _397  and  _398
REMARK  154  A    between atoms: _397  and  _400
REMARK  155  A    between atoms: _400  and  _401
REMARK  156  A    between atoms: _401  and  _402
REMARK  157  A    between atoms: _407  and  _409
REMARK  158  A    between atoms: _409  and  _410
REMARK  159  A    between atoms: _409  and  _412
REMARK  160  A    between atoms: _412  and  _413
REMARK  161  A    between atoms: _416  and  _418
REMARK  162  A    between atoms: _418  and  _419
REMARK  163  A    between atoms: _421  and  _423
REMARK  164  A    between atoms: _423  and  _424
REMARK  165  A    between atoms: _423  and  _426
REMARK  166  A    between atoms: _430  and  _431
REMARK  167  A    between atoms: _436  and  _438
REMARK  168  A    between atoms: _438  and  _439
REMARK  169  A    between atoms: _442  and  _444
REMARK  170  A    between atoms: _444  and  _445
REMARK  171  A    between atoms: _444  and  _447
REMARK  172  A    between atoms: _447  and  _448
REMARK  173  A    between atoms: _454  and  _456
REMARK  174  A    between atoms: _456  and  _457
REMARK  175  A    between atoms: _456  and  _459
REMARK  176  A    between atoms: _459  and  _460
REMARK  177  A    between atoms: _463  and  _465
REMARK  178  A    between atoms: _465  and  _466
REMARK  179  A    between atoms: _465  and  _468
REMARK  180  A    between atoms: _468  and  _469
REMARK  181  A    between atoms: _469  and  _470
REMARK  182  A    between atoms: _473  and  _475
REMARK  183  A    between atoms: _475  and  _476
REMARK  184  A    between atoms: _475  and  _478
REMARK  185  A    between atoms: _478  and  _479
REMARK  186  A    between atoms: _484  and  _486
REMARK  187  A    between atoms: _486  and  _487
REMARK  188  A    between atoms: _489  and  _491
REMARK  189  A    between atoms: _491  and  _492
REMARK  190  A    between atoms: _491  and  _494
REMARK  191  A    between atoms: _494  and  _495
REMARK  192  A    between atoms: _495  and  _496
REMARK  193  A    between atoms: _498  and  _500
REMARK  194  A    between atoms: _500  and  _501
REMARK  195  A    between atoms: _503  and  _505
REMARK  196  A    between atoms: _505  and  _506
REMARK  197  A    between atoms: _505  and  _508
REMARK  198  A    between atoms: _508  and  _509
REMARK  199  A    between atoms: _519  and  _521
REMARK  200  A    between atoms: _521  and  _522
REMARK  201  A    between atoms: _525  and  _527
REMARK  202  A    between atoms: _527  and  _528
REMARK  203  A    between atoms: _527  and  _530
REMARK  204  A    between atoms: _530  and  _531
REMARK  205  A    between atoms: _534  and  _536
REMARK  206  A    between atoms: _536  and  _537
REMARK  207  A    between atoms: _536  and  _539
REMARK  208  A    between atoms: _539  and  _540
REMARK  209  A    between atoms: _545  and  _547
REMARK  210  A    between atoms: _547  and  _548
REMARK  211  A    between atoms: _547  and  _550
REMARK  212  A    between atoms: _550  and  _551
REMARK  213  A    between atoms: _557  and  _559
REMARK  214  A    between atoms: _559  and  _560
REMARK  215  A    between atoms: _559  and  _562
REMARK  216  A    between atoms: _562  and  _563
REMARK  217  A    between atoms: _563  and  _564
REMARK  218  A    between atoms: _567  and  _569
REMARK  219  A    between atoms: _569  and  _570
REMARK  220  A    between atoms: _569  and  _572
REMARK  221  A    between atoms: _572  and  _573
REMARK  222  A    between atoms: _583  and  _585
REMARK  223  A    between atoms: _585  and  _586
REMARK  224  A    between atoms: _585  and  _588
REMARK  225  A    between atoms: _588  and  _589
REMARK  226  A    between atoms: _592  and  _594
REMARK  227  A    between atoms: _594  and  _595
REMARK  228  A    between atoms: _594  and  _597
REMARK  229  A    between atoms: _597  and  _598
REMARK  230  A    between atoms: _600  and  _602
REMARK  231  A    between atoms: _602  and  _603
REMARK  232  A    between atoms: _605  and  _607
REMARK  233  A    between atoms: _607  and  _608
REMARK  234  A    between atoms: _607  and  _610
REMARK  235  A    between atoms: _610  and  _611
REMARK  236  A    between atoms: _614  and  _616
REMARK  237  A    between atoms: _616  and  _617
REMARK  238  A    between atoms: _616  and  _619
REMARK  239  A    between atoms: _619  and  _620
REMARK  240  A    between atoms: _620  and  _621
REMARK  241  A    between atoms: _626  and  _628
REMARK  242  A    between atoms: _628  and  _629
REMARK  243  A    between atoms: _628  and  _631
REMARK  244  A    between atoms: _631  and  _632
REMARK                            x       y       z     vdW  Elec       q    Type
REMARK                         _______ _______ _______ _____ _____    ______ ____
ROOT
ATOM      1  O   HOH     1      -3.973  31.010   9.661  0.00  0.00    +0.000 OA
ENDROOT
TORSDOF 0
REMARK  Name = ../refined-set-2016/3wq6/3wq6_pocket.pdb
REMARK  244 active torsions:
REMARK  status: ('A' for Active; 'I' for Inactive)
REMARK    1  A    between atoms: _1  and  _3
REMARK    2  A    between atoms: _3  and  _4
REMARK    3  A    between atoms: _7  and  _9
REMARK    4  A    between atoms: _9  and  _10
REMARK    5  A    between atoms: _9  and  _12
REMARK    6  A    between atoms: _12  and  _13
REMARK    7  A    between atoms: _15  and  _17
REMARK    8  A    between atoms: _17  and  _18
REMARK    9  A    between atoms: _17  and  _20
REMARK   10  A    between atoms: _20  and  _21
REMARK   11  A    between atoms: _23  and  _25
REMARK   12  A    between atoms: _25  and  _26
REMARK   13  A    between atoms: _29  and  _31
REMARK   14  A    between atoms: _31  and  _32
REMARK   15  A    between atoms: _31  and  _34
REMARK   16  A    between atoms: _34  and  _35
REMARK   17  A    between atoms: _40  and  _41
REMARK   18  A    between atoms: _43  and  _45
REMARK   19  A    between atoms: _45  and  _46
REMARK   20  A    between atoms: _45  and  _48
REMARK   21  A    between atoms: _48  and  _49
REMARK   22  A    between atoms: _49  and  _50
REMARK   23  A    between atoms: _55  and  _57
REMARK   24  A    between atoms: _57  and  _58
REMARK   25  A    between atoms: _57  and  _60
REMARK   26  A    between atoms: _60  and  _61
REMARK   27  A    between atoms: _67  and  _69
REMARK   28  A    between atoms: _69  and  _70
REMARK   29  A    between atoms: _69  and  _72
REMARK   30  A    between atoms: _72  and  _73
REMARK   31  A    between atoms: _83  and  _85
REMARK   32  A    between atoms: _85  and  _86
REMARK   33  A    between atoms: _85  and  _88
REMARK   34  A    between atoms: _88  and  _89
REMARK   35  A    between atoms: _91  and  _93
REMARK   36  A    between atoms: _93  and  _94
REMARK   37  A    between atoms: _93  and  _96
REMARK   38  A    between atoms: _96  and  _97
REMARK   39  A    between atoms: _97  and  _98
REMARK   40  A    between atoms: _98  and  _99
REMARK   41  A    between atoms: _108  and  _110
REMARK   42  A    between atoms: _110  and  _111
REMARK   43  A    between atoms: _110  and  _113
REMARK   44  A    between atoms: _113  and  _114
REMARK   45  A    between atoms: _117  and  _119
REMARK   46  A    between atoms: _119  and  _120
REMARK   47  A    between atoms: _119  and  _122
REMARK   48  A    between atoms: _122  and  _123
REMARK   49  A    between atoms: _128  and  _130
REMARK   50  A    between atoms: _130  and  _131
REMARK   51  A    between atoms: _130  and  _133
REMARK   52  A    between atoms: _133  and  _134
REMARK   53  A    between atoms: _144  and  _146
REMARK   54  A    between atoms: _146  and  _147
REMARK   55  A    between atoms: _146  and  _149
REMARK   56  A    between atoms: _149  and  _150
REMARK   57  A    between atoms: _155  and  _157
REMARK   58  A    between atoms: _157  and  _158
REMARK   59  A    between atoms: _157  and  _160
REMARK   60  A    between atoms: _160  and  _161
REMARK   61  A    between atoms: _161  and  _162
REMARK   62  A    between atoms: _165  and  _167
REMARK   63  A    between atoms: _167  and  _168
REMARK   64  A    between atoms: _167  and  _170
REMARK   65  A    between atoms: _170  and  _171
REMARK   66  A    between atoms: _181  and  _183
REMARK   67  A    between atoms: _183  and  _184
REMARK   68  A    between atoms: _183  and  _186
REMARK   69  A    between atoms: _186  and  _187
REMARK   70  A    between atoms: _189  and  _191
REMARK   71  A    between atoms: _191  and  _192
REMARK   72  A    between atoms: _191  and  _194
REMARK   73  A    between atoms: _194  and  _195
REMARK   74  A    between atoms: _200  and  _201
REMARK   75  A    between atoms: _203  and  _205
REMARK   76  A    between atoms: _205  and  _206
REMARK   77  A    between atoms: _205  and  _208
REMARK   78  A    between atoms: _208  and  _209
REMARK   79  A    between atoms: _211  and  _213
REMARK   80  A    between atoms: _213  and  _214
REMARK   81  A    between atoms: _213  and  _216
REMARK   82  A    between atoms: _216  and  _217
REMARK   83  A    between atoms: _222  and  _223
REMARK   84  A    between atoms: _225  and  _227
REMARK   85  A    between atoms: _227  and  _228
REMARK   86  A    between atoms: _230  and  _232
REMARK   87  A    between atoms: _232  and  _233
REMARK   88  A    between atoms: _235  and  _237
REMARK   89  A    between atoms: _237  and  _238
REMARK   90  A    between atoms: _237  and  _240
REMARK   91  A    between atoms: _240  and  _241
REMARK   92  A    between atoms: _246  and  _247
REMARK   93  A    between atoms: _249  and  _251
REMARK   94  A    between atoms: _251  and  _252
REMARK   95  A    between atoms: _251  and  _254
REMARK   96  A    between atoms: _254  and  _255
REMARK   97  A    between atoms: _258  and  _260
REMARK   98  A    between atoms: _260  and  _261
REMARK   99  A    between atoms: _264  and  _266
REMARK  100  A    between atoms: _266  and  _267
REMARK  101  A    between atoms: _269  and  _271
REMARK  102  A    between atoms: _271  and  _272
REMARK  103  A    between atoms: _271  and  _274
REMARK  104  A    between atoms: _274  and  _275
REMARK  105  A    between atoms: _278  and  _280
REMARK  106  A    between atoms: _280  and  _281
REMARK  107  A    between atoms: _280  and  _283
REMARK  108  A    between atoms: _283  and  _284
REMARK  109  A    between atoms: _287  and  _289
REMARK  110  A    between atoms: _289  and  _290
REMARK  111  A    between atoms: _289  and  _292
REMARK  112  A    between atoms: _292  and  _293
REMARK  113  A    between atoms: _296  and  _298
REMARK  114  A    between atoms: _298  and  _299
REMARK  115  A    between atoms: _298  and  _301
REMARK  116  A    between atoms: _304  and  _306
REMARK  117  A    between atoms: _306  and  _307
REMARK  118  A    between atoms: _306  and  _309
REMARK  119  A    between atoms: _309  and  _310
REMARK  120  A    between atoms: _313  and  _315
REMARK  121  A    between atoms: _315  and  _316
REMARK  122  A    between atoms: _315  and  _318
REMARK  123  A    between atoms: _318  and  _319
REMARK  124  A    between atoms: _324  and  _325
REMARK  125  A    between atoms: _327  and  _329
REMARK  126  A    between atoms: _329  and  _330
REMARK  127  A    between atoms: _329  and  _332
REMARK  128  A    between atoms: _332  and  _333
REMARK  129  A    between atoms: _333  and  _334
REMARK  130  A    between atoms: _336  and  _338
REMARK  131  A    between atoms: _338  and  _339
REMARK  132  A    between atoms: _338  and  _341
REMARK  133  A    between atoms: _341  and  _342
REMARK  134  A    between atoms: _347  and  _349
REMARK  135  A    between atoms: _349  and  _350
REMARK  136  A    between atoms: _349  and  _352
REMARK  137  A    between atoms: _352  and  _353
REMARK  138  A    between atoms: _358  and  _359
REMARK  139  A    between atoms: _361  and  _363
REMARK  140  A    between atoms: _363  and  _364
REMARK  141  A    between atoms: _363  and  _366
REMARK  142  A    between atoms: _366  and  _367
REMARK  143  A    between atoms: _372  and  _373
REMARK  144  A    between atoms: _375  and  _377
REMARK  145  A    between atoms: _377  and  _378
REMARK  146  A    between atoms: _377  and  _380
REMARK  147  A    between atoms: _380  and  _381
REMARK  148  A    between atoms: _384  and  _386
REMARK  149  A    between atoms: _386  and  _387
REMARK  150  A    between atoms: _386  and  _389
REMARK  151  A    between atoms: _389  and  _390
REMARK  152  A    between atoms: _395  and  _397
REMARK  153  A    between atoms: _397  and  _398
REMARK  154  A    between atoms: _397  and  _400
REMARK  155  A    between atoms: _400  and  _401
REMARK  156  A    between atoms: _401  and  _402
REMARK  157  A    between atoms: _407  and  _409
REMARK  158  A    between atoms: _409  and  _410
REMARK  159  A    between atoms: _409  and  _412
REMARK  160  A    between atoms: _412  and  _413
REMARK  161  A    between atoms: _416  and  _418
REMARK  162  A    between atoms: _418  and  _419
REMARK  163  A    between atoms: _421  and  _423
REMARK  164  A    between atoms: _423  and  _424
REMARK  165  A    between atoms: _423  and  _426
REMARK  166  A    between atoms: _430  and  _431
REMARK  167  A    between atoms: _436  and  _438
REMARK  168  A    between atoms: _438  and  _439
REMARK  169  A    between atoms: _442  and  _444
REMARK  170  A    between atoms: _444  and  _445
REMARK  171  A    between atoms: _444  and  _447
REMARK  172  A    between atoms: _447  and  _448
REMARK  173  A    between atoms: _454  and  _456
REMARK  174  A    between atoms: _456  and  _457
REMARK  175  A    between atoms: _456  and  _459
REMARK  176  A    between atoms: _459  and  _460
REMARK  177  A    between atoms: _463  and  _465
REMARK  178  A    between atoms: _465  and  _466
REMARK  179  A    between atoms: _465  and  _468
REMARK  180  A    between atoms: _468  and  _469
REMARK  181  A    between atoms: _469  and  _470
REMARK  182  A    between atoms: _473  and  _475
REMARK  183  A    between atoms: _475  and  _476
REMARK  184  A    between atoms: _475  and  _478
REMARK  185  A    between atoms: _478  and  _479
REMARK  186  A    between atoms: _484  and  _486
REMARK  187  A    between atoms: _486  and  _487
REMARK  188  A    between atoms: _489  and  _491
REMARK  189  A    between atoms: _491  and  _492
REMARK  190  A    between atoms: _491  and  _494
REMARK  191  A    between atoms: _494  and  _495
REMARK  192  A    between atoms: _495  and  _496
REMARK  193  A    between atoms: _498  and  _500
REMARK  194  A    between atoms: _500  and  _501
REMARK  195  A    between atoms: _503  and  _505
REMARK  196  A    between atoms: _505  and  _506
REMARK  197  A    between atoms: _505  and  _508
REMARK  198  A    between atoms: _508  and  _509
REMARK  199  A    between atoms: _519  and  _521
REMARK  200  A    between atoms: _521  and  _522
REMARK  201  A    between atoms: _525  and  _527
REMARK  202  A    between atoms: _527  and  _528
REMARK  203  A    between atoms: _527  and  _530
REMARK  204  A    between atoms: _530  and  _531
REMARK  205  A    between atoms: _534  and  _536
REMARK  206  A    between atoms: _536  and  _537
REMARK  207  A    between atoms: _536  and  _539
REMARK  208  A    between atoms: _539  and  _540
REMARK  209  A    between atoms: _545  and  _547
REMARK  210  A    between atoms: _547  and  _548
REMARK  211  A    between atoms: _547  and  _550
REMARK  212  A    between atoms: _550  and  _551
REMARK  213  A    between atoms: _557  and  _559
REMARK  214  A    between atoms: _559  and  _560
REMARK  215  A    between atoms: _559  and  _562
REMARK  216  A    between atoms: _562  and  _563
REMARK  217  A    between atoms: _563  and  _564
REMARK  218  A    between atoms: _567  and  _569
REMARK  219  A    between atoms: _569  and  _570
REMARK  220  A    between atoms: _569  and  _572
REMARK  221  A    between atoms: _572  and  _573
REMARK  222  A    between atoms: _583  and  _585
REMARK  223  A    between atoms: _585  and  _586
REMARK  224  A    between atoms: _585  and  _588
REMARK  225  A    between atoms: _588  and  _589
REMARK  226  A    between atoms: _592  and  _594
REMARK  227  A    between atoms: _594  and  _595
REMARK  228  A    between atoms: _594  and  _597
REMARK  229  A    between atoms: _597  and  _598
REMARK  230  A    between atoms: _600  and  _602
REMARK  231  A    between atoms: _602  and  _603
REMARK  232  A    between atoms: _605  and  _607
REMARK  233  A    between atoms: _607  and  _608
REMARK  234  A    between atoms: _607  and  _610
REMARK  235  A    between atoms: _610  and  _611
REMARK  236  A    between atoms: _614  and  _616
REMARK  237  A    between atoms: _616  and  _617
REMARK  238  A    between atoms: _616  and  _619
REMARK  239  A    between atoms: _619  and  _620
REMARK  240  A    between atoms: _620  and  _621
REMARK  241  A    between atoms: _626  and  _628
REMARK  242  A    between atoms: _628  and  _629
REMARK  243  A    between atoms: _628  and  _631
REMARK  244  A    between atoms: _631  and  _632
REMARK                            x       y       z     vdW  Elec       q    Type
REMARK                         _______ _______ _______ _____ _____    ______ ____
ROOT
ATOM      1  O   HOH     1      -7.245  37.799  12.419  0.00  0.00    +0.000 OA
ENDROOT
TORSDOF 0
REMARK  Name = ../refined-set-2016/3wq6/3wq6_pocket.pdb
REMARK  244 active torsions:
REMARK  status: ('A' for Active; 'I' for Inactive)
REMARK    1  A    between atoms: _1  and  _3
REMARK    2  A    between atoms: _3  and  _4
REMARK    3  A    between atoms: _7  and  _9
REMARK    4  A    between atoms: _9  and  _10
REMARK    5  A    between atoms: _9  and  _12
REMARK    6  A    between atoms: _12  and  _13
REMARK    7  A    between atoms: _15  and  _17
REMARK    8  A    between atoms: _17  and  _18
REMARK    9  A    between atoms: _17  and  _20
REMARK   10  A    between atoms: _20  and  _21
REMARK   11  A    between atoms: _23  and  _25
REMARK   12  A    between atoms: _25  and  _26
REMARK   13  A    between atoms: _29  and  _31
REMARK   14  A    between atoms: _31  and  _32
REMARK   15  A    between atoms: _31  and  _34
REMARK   16  A    between atoms: _34  and  _35
REMARK   17  A    between atoms: _40  and  _41
REMARK   18  A    between atoms: _43  and  _45
REMARK   19  A    between atoms: _45  and  _46
REMARK   20  A    between atoms: _45  and  _48
REMARK   21  A    between atoms: _48  and  _49
REMARK   22  A    between atoms: _49  and  _50
REMARK   23  A    between atoms: _55  and  _57
REMARK   24  A    between atoms: _57  and  _58
REMARK   25  A    between atoms: _57  and  _60
REMARK   26  A    between atoms: _60  and  _61
REMARK   27  A    between atoms: _67  and  _69
REMARK   28  A    between atoms: _69  and  _70
REMARK   29  A    between atoms: _69  and  _72
REMARK   30  A    between atoms: _72  and  _73
REMARK   31  A    between atoms: _83  and  _85
REMARK   32  A    between atoms: _85  and  _86
REMARK   33  A    between atoms: _85  and  _88
REMARK   34  A    between atoms: _88  and  _89
REMARK   35  A    between atoms: _91  and  _93
REMARK   36  A    between atoms: _93  and  _94
REMARK   37  A    between atoms: _93  and  _96
REMARK   38  A    between atoms: _96  and  _97
REMARK   39  A    between atoms: _97  and  _98
REMARK   40  A    between atoms: _98  and  _99
REMARK   41  A    between atoms: _108  and  _110
REMARK   42  A    between atoms: _110  and  _111
REMARK   43  A    between atoms: _110  and  _113
REMARK   44  A    between atoms: _113  and  _114
REMARK   45  A    between atoms: _117  and  _119
REMARK   46  A    between atoms: _119  and  _120
REMARK   47  A    between atoms: _119  and  _122
REMARK   48  A    between atoms: _122  and  _123
REMARK   49  A    between atoms: _128  and  _130
REMARK   50  A    between atoms: _130  and  _131
REMARK   51  A    between atoms: _130  and  _133
REMARK   52  A    between atoms: _133  and  _134
REMARK   53  A    between atoms: _144  and  _146
REMARK   54  A    between atoms: _146  and  _147
REMARK   55  A    between atoms: _146  and  _149
REMARK   56  A    between atoms: _149  and  _150
REMARK   57  A    between atoms: _155  and  _157
REMARK   58  A    between atoms: _157  and  _158
REMARK   59  A    between atoms: _157  and  _160
REMARK   60  A    between atoms: _160  and  _161
REMARK   61  A    between atoms: _161  and  _162
REMARK   62  A    between atoms: _165  and  _167
REMARK   63  A    between atoms: _167  and  _168
REMARK   64  A    between atoms: _167  and  _170
REMARK   65  A    between atoms: _170  and  _171
REMARK   66  A    between atoms: _181  and  _183
REMARK   67  A    between atoms: _183  and  _184
REMARK   68  A    between atoms: _183  and  _186
REMARK   69  A    between atoms: _186  and  _187
REMARK   70  A    between atoms: _189  and  _191
REMARK   71  A    between atoms: _191  and  _192
REMARK   72  A    between atoms: _191  and  _194
REMARK   73  A    between atoms: _194  and  _195
REMARK   74  A    between atoms: _200  and  _201
REMARK   75  A    between atoms: _203  and  _205
REMARK   76  A    between atoms: _205  and  _206
REMARK   77  A    between atoms: _205  and  _208
REMARK   78  A    between atoms: _208  and  _209
REMARK   79  A    between atoms: _211  and  _213
REMARK   80  A    between atoms: _213  and  _214
REMARK   81  A    between atoms: _213  and  _216
REMARK   82  A    between atoms: _216  and  _217
REMARK   83  A    between atoms: _222  and  _223
REMARK   84  A    between atoms: _225  and  _227
REMARK   85  A    between atoms: _227  and  _228
REMARK   86  A    between atoms: _230  and  _232
REMARK   87  A    between atoms: _232  and  _233
REMARK   88  A    between atoms: _235  and  _237
REMARK   89  A    between atoms: _237  and  _238
REMARK   90  A    between atoms: _237  and  _240
REMARK   91  A    between atoms: _240  and  _241
REMARK   92  A    between atoms: _246  and  _247
REMARK   93  A    between atoms: _249  and  _251
REMARK   94  A    between atoms: _251  and  _252
REMARK   95  A    between atoms: _251  and  _254
REMARK   96  A    between atoms: _254  and  _255
REMARK   97  A    between atoms: _258  and  _260
REMARK   98  A    between atoms: _260  and  _261
REMARK   99  A    between atoms: _264  and  _266
REMARK  100  A    between atoms: _266  and  _267
REMARK  101  A    between atoms: _269  and  _271
REMARK  102  A    between atoms: _271  and  _272
REMARK  103  A    between atoms: _271  and  _274
REMARK  104  A    between atoms: _274  and  _275
REMARK  105  A    between atoms: _278  and  _280
REMARK  106  A    between atoms: _280  and  _281
REMARK  107  A    between atoms: _280  and  _283
REMARK  108  A    between atoms: _283  and  _284
REMARK  109  A    between atoms: _287  and  _289
REMARK  110  A    between atoms: _289  and  _290
REMARK  111  A    between atoms: _289  and  _292
REMARK  112  A    between atoms: _292  and  _293
REMARK  113  A    between atoms: _296  and  _298
REMARK  114  A    between atoms: _298  and  _299
REMARK  115  A    between atoms: _298  and  _301
REMARK  116  A    between atoms: _304  and  _306
REMARK  117  A    between atoms: _306  and  _307
REMARK  118  A    between atoms: _306  and  _309
REMARK  119  A    between atoms: _309  and  _310
REMARK  120  A    between atoms: _313  and  _315
REMARK  121  A    between atoms: _315  and  _316
REMARK  122  A    between atoms: _315  and  _318
REMARK  123  A    between atoms: _318  and  _319
REMARK  124  A    between atoms: _324  and  _325
REMARK  125  A    between atoms: _327  and  _329
REMARK  126  A    between atoms: _329  and  _330
REMARK  127  A    between atoms: _329  and  _332
REMARK  128  A    between atoms: _332  and  _333
REMARK  129  A    between atoms: _333  and  _334
REMARK  130  A    between atoms: _336  and  _338
REMARK  131  A    between atoms: _338  and  _339
REMARK  132  A    between atoms: _338  and  _341
REMARK  133  A    between atoms: _341  and  _342
REMARK  134  A    between atoms: _347  and  _349
REMARK  135  A    between atoms: _349  and  _350
REMARK  136  A    between atoms: _349  and  _352
REMARK  137  A    between atoms: _352  and  _353
REMARK  138  A    between atoms: _358  and  _359
REMARK  139  A    between atoms: _361  and  _363
REMARK  140  A    between atoms: _363  and  _364
REMARK  141  A    between atoms: _363  and  _366
REMARK  142  A    between atoms: _366  and  _367
REMARK  143  A    between atoms: _372  and  _373
REMARK  144  A    between atoms: _375  and  _377
REMARK  145  A    between atoms: _377  and  _378
REMARK  146  A    between atoms: _377  and  _380
REMARK  147  A    between atoms: _380  and  _381
REMARK  148  A    between atoms: _384  and  _386
REMARK  149  A    between atoms: _386  and  _387
REMARK  150  A    between atoms: _386  and  _389
REMARK  151  A    between atoms: _389  and  _390
REMARK  152  A    between atoms: _395  and  _397
REMARK  153  A    between atoms: _397  and  _398
REMARK  154  A    between atoms: _397  and  _400
REMARK  155  A    between atoms: _400  and  _401
REMARK  156  A    between atoms: _401  and  _402
REMARK  157  A    between atoms: _407  and  _409
REMARK  158  A    between atoms: _409  and  _410
REMARK  159  A    between atoms: _409  and  _412
REMARK  160  A    between atoms: _412  and  _413
REMARK  161  A    between atoms: _416  and  _418
REMARK  162  A    between atoms: _418  and  _419
REMARK  163  A    between atoms: _421  and  _423
REMARK  164  A    between atoms: _423  and  _424
REMARK  165  A    between atoms: _423  and  _426
REMARK  166  A    between atoms: _430  and  _431
REMARK  167  A    between atoms: _436  and  _438
REMARK  168  A    between atoms: _438  and  _439
REMARK  169  A    between atoms: _442  and  _444
REMARK  170  A    between atoms: _444  and  _445
REMARK  171  A    between atoms: _444  and  _447
REMARK  172  A    between atoms: _447  and  _448
REMARK  173  A    between atoms: _454  and  _456
REMARK  174  A    between atoms: _456  and  _457
REMARK  175  A    between atoms: _456  and  _459
REMARK  176  A    between atoms: _459  and  _460
REMARK  177  A    between atoms: _463  and  _465
REMARK  178  A    between atoms: _465  and  _466
REMARK  179  A    between atoms: _465  and  _468
REMARK  180  A    between atoms: _468  and  _469
REMARK  181  A    between atoms: _469  and  _470
REMARK  182  A    between atoms: _473  and  _475
REMARK  183  A    between atoms: _475  and  _476
REMARK  184  A    between atoms: _475  and  _478
REMARK  185  A    between atoms: _478  and  _479
REMARK  186  A    between atoms: _484  and  _486
REMARK  187  A    between atoms: _486  and  _487
REMARK  188  A    between atoms: _489  and  _491
REMARK  189  A    between atoms: _491  and  _492
REMARK  190  A    between atoms: _491  and  _494
REMARK  191  A    between atoms: _494  and  _495
REMARK  192  A    between atoms: _495  and  _496
REMARK  193  A    between atoms: _498  and  _500
REMARK  194  A    between atoms: _500  and  _501
REMARK  195  A    between atoms: _503  and  _505
REMARK  196  A    between atoms: _505  and  _506
REMARK  197  A    between atoms: _505  and  _508
REMARK  198  A    between atoms: _508  and  _509
REMARK  199  A    between atoms: _519  and  _521
REMARK  200  A    between atoms: _521  and  _522
REMARK  201  A    between atoms: _525  and  _527
REMARK  202  A    between atoms: _527  and  _528
REMARK  203  A    between atoms: _527  and  _530
REMARK  204  A    between atoms: _530  and  _531
REMARK  205  A    between atoms: _534  and  _536
REMARK  206  A    between atoms: _536  and  _537
REMARK  207  A    between atoms: _536  and  _539
REMARK  208  A    between atoms: _539  and  _540
REMARK  209  A    between atoms: _545  and  _547
REMARK  210  A    between atoms: _547  and  _548
REMARK  211  A    between atoms: _547  and  _550
REMARK  212  A    between atoms: _550  and  _551
REMARK  213  A    between atoms: _557  and  _559
REMARK  214  A    between atoms: _559  and  _560
REMARK  215  A    between atoms: _559  and  _562
REMARK  216  A    between atoms: _562  and  _563
REMARK  217  A    between atoms: _563  and  _564
REMARK  218  A    between atoms: _567  and  _569
REMARK  219  A    between atoms: _569  and  _570
REMARK  220  A    between atoms: _569  and  _572
REMARK  221  A    between atoms: _572  and  _573
REMARK  222  A    between atoms: _583  and  _585
REMARK  223  A    between atoms: _585  and  _586
REMARK  224  A    between atoms: _585  and  _588
REMARK  225  A    between atoms: _588  and  _589
REMARK  226  A    between atoms: _592  and  _594
REMARK  227  A    between atoms: _594  and  _595
REMARK  228  A    between atoms: _594  and  _597
REMARK  229  A    between atoms: _597  and  _598
REMARK  230  A    between atoms: _600  and  _602
REMARK  231  A    between atoms: _602  and  _603
REMARK  232  A    between atoms: _605  and  _607
REMARK  233  A    between atoms: _607  and  _608
REMARK  234  A    between atoms: _607  and  _610
REMARK  235  A    between atoms: _610  and  _611
REMARK  236  A    between atoms: _614  and  _616
REMARK  237  A    between atoms: _616  and  _617
REMARK  238  A    between atoms: _616  and  _619
REMARK  239  A    between atoms: _619  and  _620
REMARK  240  A    between atoms: _620  and  _621
REMARK  241  A    between atoms: _626  and  _628
REMARK  242  A    between atoms: _628  and  _629
REMARK  243  A    between atoms: _628  and  _631
REMARK  244  A    between atoms: _631  and  _632
REMARK                            x       y       z     vdW  Elec       q    Type
REMARK                         _______ _______ _______ _____ _____    ______ ____
ROOT
ATOM      1  O   HOH     1      -6.024  39.255  10.618  0.00  0.00    +0.000 OA
ENDROOT
TORSDOF 0
REMARK  Name = ../refined-set-2016/3wq6/3wq6_pocket.pdb
REMARK  244 active torsions:
REMARK  status: ('A' for Active; 'I' for Inactive)
REMARK    1  A    between atoms: _1  and  _3
REMARK    2  A    between atoms: _3  and  _4
REMARK    3  A    between atoms: _7  and  _9
REMARK    4  A    between atoms: _9  and  _10
REMARK    5  A    between atoms: _9  and  _12
REMARK    6  A    between atoms: _12  and  _13
REMARK    7  A    between atoms: _15  and  _17
REMARK    8  A    between atoms: _17  and  _18
REMARK    9  A    between atoms: _17  and  _20
REMARK   10  A    between atoms: _20  and  _21
REMARK   11  A    between atoms: _23  and  _25
REMARK   12  A    between atoms: _25  and  _26
REMARK   13  A    between atoms: _29  and  _31
REMARK   14  A    between atoms: _31  and  _32
REMARK   15  A    between atoms: _31  and  _34
REMARK   16  A    between atoms: _34  and  _35
REMARK   17  A    between atoms: _40  and  _41
REMARK   18  A    between atoms: _43  and  _45
REMARK   19  A    between atoms: _45  and  _46
REMARK   20  A    between atoms: _45  and  _48
REMARK   21  A    between atoms: _48  and  _49
REMARK   22  A    between atoms: _49  and  _50
REMARK   23  A    between atoms: _55  and  _57
REMARK   24  A    between atoms: _57  and  _58
REMARK   25  A    between atoms: _57  and  _60
REMARK   26  A    between atoms: _60  and  _61
REMARK   27  A    between atoms: _67  and  _69
REMARK   28  A    between atoms: _69  and  _70
REMARK   29  A    between atoms: _69  and  _72
REMARK   30  A    between atoms: _72  and  _73
REMARK   31  A    between atoms: _83  and  _85
REMARK   32  A    between atoms: _85  and  _86
REMARK   33  A    between atoms: _85  and  _88
REMARK   34  A    between atoms: _88  and  _89
REMARK   35  A    between atoms: _91  and  _93
REMARK   36  A    between atoms: _93  and  _94
REMARK   37  A    between atoms: _93  and  _96
REMARK   38  A    between atoms: _96  and  _97
REMARK   39  A    between atoms: _97  and  _98
REMARK   40  A    between atoms: _98  and  _99
REMARK   41  A    between atoms: _108  and  _110
REMARK   42  A    between atoms: _110  and  _111
REMARK   43  A    between atoms: _110  and  _113
REMARK   44  A    between atoms: _113  and  _114
REMARK   45  A    between atoms: _117  and  _119
REMARK   46  A    between atoms: _119  and  _120
REMARK   47  A    between atoms: _119  and  _122
REMARK   48  A    between atoms: _122  and  _123
REMARK   49  A    between atoms: _128  and  _130
REMARK   50  A    between atoms: _130  and  _131
REMARK   51  A    between atoms: _130  and  _133
REMARK   52  A    between atoms: _133  and  _134
REMARK   53  A    between atoms: _144  and  _146
REMARK   54  A    between atoms: _146  and  _147
REMARK   55  A    between atoms: _146  and  _149
REMARK   56  A    between atoms: _149  and  _150
REMARK   57  A    between atoms: _155  and  _157
REMARK   58  A    between atoms: _157  and  _158
REMARK   59  A    between atoms: _157  and  _160
REMARK   60  A    between atoms: _160  and  _161
REMARK   61  A    between atoms: _161  and  _162
REMARK   62  A    between atoms: _165  and  _167
REMARK   63  A    between atoms: _167  and  _168
REMARK   64  A    between atoms: _167  and  _170
REMARK   65  A    between atoms: _170  and  _171
REMARK   66  A    between atoms: _181  and  _183
REMARK   67  A    between atoms: _183  and  _184
REMARK   68  A    between atoms: _183  and  _186
REMARK   69  A    between atoms: _186  and  _187
REMARK   70  A    between atoms: _189  and  _191
REMARK   71  A    between atoms: _191  and  _192
REMARK   72  A    between atoms: _191  and  _194
REMARK   73  A    between atoms: _194  and  _195
REMARK   74  A    between atoms: _200  and  _201
REMARK   75  A    between atoms: _203  and  _205
REMARK   76  A    between atoms: _205  and  _206
REMARK   77  A    between atoms: _205  and  _208
REMARK   78  A    between atoms: _208  and  _209
REMARK   79  A    between atoms: _211  and  _213
REMARK   80  A    between atoms: _213  and  _214
REMARK   81  A    between atoms: _213  and  _216
REMARK   82  A    between atoms: _216  and  _217
REMARK   83  A    between atoms: _222  and  _223
REMARK   84  A    between atoms: _225  and  _227
REMARK   85  A    between atoms: _227  and  _228
REMARK   86  A    between atoms: _230  and  _232
REMARK   87  A    between atoms: _232  and  _233
REMARK   88  A    between atoms: _235  and  _237
REMARK   89  A    between atoms: _237  and  _238
REMARK   90  A    between atoms: _237  and  _240
REMARK   91  A    between atoms: _240  and  _241
REMARK   92  A    between atoms: _246  and  _247
REMARK   93  A    between atoms: _249  and  _251
REMARK   94  A    between atoms: _251  and  _252
REMARK   95  A    between atoms: _251  and  _254
REMARK   96  A    between atoms: _254  and  _255
REMARK   97  A    between atoms: _258  and  _260
REMARK   98  A    between atoms: _260  and  _261
REMARK   99  A    between atoms: _264  and  _266
REMARK  100  A    between atoms: _266  and  _267
REMARK  101  A    between atoms: _269  and  _271
REMARK  102  A    between atoms: _271  and  _272
REMARK  103  A    between atoms: _271  and  _274
REMARK  104  A    between atoms: _274  and  _275
REMARK  105  A    between atoms: _278  and  _280
REMARK  106  A    between atoms: _280  and  _281
REMARK  107  A    between atoms: _280  and  _283
REMARK  108  A    between atoms: _283  and  _284
REMARK  109  A    between atoms: _287  and  _289
REMARK  110  A    between atoms: _289  and  _290
REMARK  111  A    between atoms: _289  and  _292
REMARK  112  A    between atoms: _292  and  _293
REMARK  113  A    between atoms: _296  and  _298
REMARK  114  A    between atoms: _298  and  _299
REMARK  115  A    between atoms: _298  and  _301
REMARK  116  A    between atoms: _304  and  _306
REMARK  117  A    between atoms: _306  and  _307
REMARK  118  A    between atoms: _306  and  _309
REMARK  119  A    between atoms: _309  and  _310
REMARK  120  A    between atoms: _313  and  _315
REMARK  121  A    between atoms: _315  and  _316
REMARK  122  A    between atoms: _315  and  _318
REMARK  123  A    between atoms: _318  and  _319
REMARK  124  A    between atoms: _324  and  _325
REMARK  125  A    between atoms: _327  and  _329
REMARK  126  A    between atoms: _329  and  _330
REMARK  127  A    between atoms: _329  and  _332
REMARK  128  A    between atoms: _332  and  _333
REMARK  129  A    between atoms: _333  and  _334
REMARK  130  A    between atoms: _336  and  _338
REMARK  131  A    between atoms: _338  and  _339
REMARK  132  A    between atoms: _338  and  _341
REMARK  133  A    between atoms: _341  and  _342
REMARK  134  A    between atoms: _347  and  _349
REMARK  135  A    between atoms: _349  and  _350
REMARK  136  A    between atoms: _349  and  _352
REMARK  137  A    between atoms: _352  and  _353
REMARK  138  A    between atoms: _358  and  _359
REMARK  139  A    between atoms: _361  and  _363
REMARK  140  A    between atoms: _363  and  _364
REMARK  141  A    between atoms: _363  and  _366
REMARK  142  A    between atoms: _366  and  _367
REMARK  143  A    between atoms: _372  and  _373
REMARK  144  A    between atoms: _375  and  _377
REMARK  145  A    between atoms: _377  and  _378
REMARK  146  A    between atoms: _377  and  _380
REMARK  147  A    between atoms: _380  and  _381
REMARK  148  A    between atoms: _384  and  _386
REMARK  149  A    between atoms: _386  and  _387
REMARK  150  A    between atoms: _386  and  _389
REMARK  151  A    between atoms: _389  and  _390
REMARK  152  A    between atoms: _395  and  _397
REMARK  153  A    between atoms: _397  and  _398
REMARK  154  A    between atoms: _397  and  _400
REMARK  155  A    between atoms: _400  and  _401
REMARK  156  A    between atoms: _401  and  _402
REMARK  157  A    between atoms: _407  and  _409
REMARK  158  A    between atoms: _409  and  _410
REMARK  159  A    between atoms: _409  and  _412
REMARK  160  A    between atoms: _412  and  _413
REMARK  161  A    between atoms: _416  and  _418
REMARK  162  A    between atoms: _418  and  _419
REMARK  163  A    between atoms: _421  and  _423
REMARK  164  A    between atoms: _423  and  _424
REMARK  165  A    between atoms: _423  and  _426
REMARK  166  A    between atoms: _430  and  _431
REMARK  167  A    between atoms: _436  and  _438
REMARK  168  A    between atoms: _438  and  _439
REMARK  169  A    between atoms: _442  and  _444
REMARK  170  A    between atoms: _444  and  _445
REMARK  171  A    between atoms: _444  and  _447
REMARK  172  A    between atoms: _447  and  _448
REMARK  173  A    between atoms: _454  and  _456
REMARK  174  A    between atoms: _456  and  _457
REMARK  175  A    between atoms: _456  and  _459
REMARK  176  A    between atoms: _459  and  _460
REMARK  177  A    between atoms: _463  and  _465
REMARK  178  A    between atoms: _465  and  _466
REMARK  179  A    between atoms: _465  and  _468
REMARK  180  A    between atoms: _468  and  _469
REMARK  181  A    between atoms: _469  and  _470
REMARK  182  A    between atoms: _473  and  _475
REMARK  183  A    between atoms: _475  and  _476
REMARK  184  A    between atoms: _475  and  _478
REMARK  185  A    between atoms: _478  and  _479
REMARK  186  A    between atoms: _484  and  _486
REMARK  187  A    between atoms: _486  and  _487
REMARK  188  A    between atoms: _489  and  _491
REMARK  189  A    between atoms: _491  and  _492
REMARK  190  A    between atoms: _491  and  _494
REMARK  191  A    between atoms: _494  and  _495
REMARK  192  A    between atoms: _495  and  _496
REMARK  193  A    between atoms: _498  and  _500
REMARK  194  A    between atoms: _500  and  _501
REMARK  195  A    between atoms: _503  and  _505
REMARK  196  A    between atoms: _505  and  _506
REMARK  197  A    between atoms: _505  and  _508
REMARK  198  A    between atoms: _508  and  _509
REMARK  199  A    between atoms: _519  and  _521
REMARK  200  A    between atoms: _521  and  _522
REMARK  201  A    between atoms: _525  and  _527
REMARK  202  A    between atoms: _527  and  _528
REMARK  203  A    between atoms: _527  and  _530
REMARK  204  A    between atoms: _530  and  _531
REMARK  205  A    between atoms: _534  and  _536
REMARK  206  A    between atoms: _536  and  _537
REMARK  207  A    between atoms: _536  and  _539
REMARK  208  A    between atoms: _539  and  _540
REMARK  209  A    between atoms: _545  and  _547
REMARK  210  A    between atoms: _547  and  _548
REMARK  211  A    between atoms: _547  and  _550
REMARK  212  A    between atoms: _550  and  _551
REMARK  213  A    between atoms: _557  and  _559
REMARK  214  A    between atoms: _559  and  _560
REMARK  215  A    between atoms: _559  and  _562
REMARK  216  A    between atoms: _562  and  _563
REMARK  217  A    between atoms: _563  and  _564
REMARK  218  A    between atoms: _567  and  _569
REMARK  219  A    between atoms: _569  and  _570
REMARK  220  A    between atoms: _569  and  _572
REMARK  221  A    between atoms: _572  and  _573
REMARK  222  A    between atoms: _583  and  _585
REMARK  223  A    between atoms: _585  and  _586
REMARK  224  A    between atoms: _585  and  _588
REMARK  225  A    between atoms: _588  and  _589
REMARK  226  A    between atoms: _592  and  _594
REMARK  227  A    between atoms: _594  and  _595
REMARK  228  A    between atoms: _594  and  _597
REMARK  229  A    between atoms: _597  and  _598
REMARK  230  A    between atoms: _600  and  _602
REMARK  231  A    between atoms: _602  and  _603
REMARK  232  A    between atoms: _605  and  _607
REMARK  233  A    between atoms: _607  and  _608
REMARK  234  A    between atoms: _607  and  _610
REMARK  235  A    between atoms: _610  and  _611
REMARK  236  A    between atoms: _614  and  _616
REMARK  237  A    between atoms: _616  and  _617
REMARK  238  A    between atoms: _616  and  _619
REMARK  239  A    between atoms: _619  and  _620
REMARK  240  A    between atoms: _620  and  _621
REMARK  241  A    between atoms: _626  and  _628
REMARK  242  A    between atoms: _628  and  _629
REMARK  243  A    between atoms: _628  and  _631
REMARK  244  A    between atoms: _631  and  _632
REMARK                            x       y       z     vdW  Elec       q    Type
REMARK                         _______ _______ _______ _____ _____    ______ ____
ROOT
ATOM      1  O   HOH     1     -10.866  35.120  20.347  0.00  0.00    +0.000 OA
ENDROOT
TORSDOF 0
REMARK  Name = ../refined-set-2016/3wq6/3wq6_pocket.pdb
REMARK  244 active torsions:
REMARK  status: ('A' for Active; 'I' for Inactive)
REMARK    1  A    between atoms: _1  and  _3
REMARK    2  A    between atoms: _3  and  _4
REMARK    3  A    between atoms: _7  and  _9
REMARK    4  A    between atoms: _9  and  _10
REMARK    5  A    between atoms: _9  and  _12
REMARK    6  A    between atoms: _12  and  _13
REMARK    7  A    between atoms: _15  and  _17
REMARK    8  A    between atoms: _17  and  _18
REMARK    9  A    between atoms: _17  and  _20
REMARK   10  A    between atoms: _20  and  _21
REMARK   11  A    between atoms: _23  and  _25
REMARK   12  A    between atoms: _25  and  _26
REMARK   13  A    between atoms: _29  and  _31
REMARK   14  A    between atoms: _31  and  _32
REMARK   15  A    between atoms: _31  and  _34
REMARK   16  A    between atoms: _34  and  _35
REMARK   17  A    between atoms: _40  and  _41
REMARK   18  A    between atoms: _43  and  _45
REMARK   19  A    between atoms: _45  and  _46
REMARK   20  A    between atoms: _45  and  _48
REMARK   21  A    between atoms: _48  and  _49
REMARK   22  A    between atoms: _49  and  _50
REMARK   23  A    between atoms: _55  and  _57
REMARK   24  A    between atoms: _57  and  _58
REMARK   25  A    between atoms: _57  and  _60
REMARK   26  A    between atoms: _60  and  _61
REMARK   27  A    between atoms: _67  and  _69
REMARK   28  A    between atoms: _69  and  _70
REMARK   29  A    between atoms: _69  and  _72
REMARK   30  A    between atoms: _72  and  _73
REMARK   31  A    between atoms: _83  and  _85
REMARK   32  A    between atoms: _85  and  _86
REMARK   33  A    between atoms: _85  and  _88
REMARK   34  A    between atoms: _88  and  _89
REMARK   35  A    between atoms: _91  and  _93
REMARK   36  A    between atoms: _93  and  _94
REMARK   37  A    between atoms: _93  and  _96
REMARK   38  A    between atoms: _96  and  _97
REMARK   39  A    between atoms: _97  and  _98
REMARK   40  A    between atoms: _98  and  _99
REMARK   41  A    between atoms: _108  and  _110
REMARK   42  A    between atoms: _110  and  _111
REMARK   43  A    between atoms: _110  and  _113
REMARK   44  A    between atoms: _113  and  _114
REMARK   45  A    between atoms: _117  and  _119
REMARK   46  A    between atoms: _119  and  _120
REMARK   47  A    between atoms: _119  and  _122
REMARK   48  A    between atoms: _122  and  _123
REMARK   49  A    between atoms: _128  and  _130
REMARK   50  A    between atoms: _130  and  _131
REMARK   51  A    between atoms: _130  and  _133
REMARK   52  A    between atoms: _133  and  _134
REMARK   53  A    between atoms: _144  and  _146
REMARK   54  A    between atoms: _146  and  _147
REMARK   55  A    between atoms: _146  and  _149
REMARK   56  A    between atoms: _149  and  _150
REMARK   57  A    between atoms: _155  and  _157
REMARK   58  A    between atoms: _157  and  _158
REMARK   59  A    between atoms: _157  and  _160
REMARK   60  A    between atoms: _160  and  _161
REMARK   61  A    between atoms: _161  and  _162
REMARK   62  A    between atoms: _165  and  _167
REMARK   63  A    between atoms: _167  and  _168
REMARK   64  A    between atoms: _167  and  _170
REMARK   65  A    between atoms: _170  and  _171
REMARK   66  A    between atoms: _181  and  _183
REMARK   67  A    between atoms: _183  and  _184
REMARK   68  A    between atoms: _183  and  _186
REMARK   69  A    between atoms: _186  and  _187
REMARK   70  A    between atoms: _189  and  _191
REMARK   71  A    between atoms: _191  and  _192
REMARK   72  A    between atoms: _191  and  _194
REMARK   73  A    between atoms: _194  and  _195
REMARK   74  A    between atoms: _200  and  _201
REMARK   75  A    between atoms: _203  and  _205
REMARK   76  A    between atoms: _205  and  _206
REMARK   77  A    between atoms: _205  and  _208
REMARK   78  A    between atoms: _208  and  _209
REMARK   79  A    between atoms: _211  and  _213
REMARK   80  A    between atoms: _213  and  _214
REMARK   81  A    between atoms: _213  and  _216
REMARK   82  A    between atoms: _216  and  _217
REMARK   83  A    between atoms: _222  and  _223
REMARK   84  A    between atoms: _225  and  _227
REMARK   85  A    between atoms: _227  and  _228
REMARK   86  A    between atoms: _230  and  _232
REMARK   87  A    between atoms: _232  and  _233
REMARK   88  A    between atoms: _235  and  _237
REMARK   89  A    between atoms: _237  and  _238
REMARK   90  A    between atoms: _237  and  _240
REMARK   91  A    between atoms: _240  and  _241
REMARK   92  A    between atoms: _246  and  _247
REMARK   93  A    between atoms: _249  and  _251
REMARK   94  A    between atoms: _251  and  _252
REMARK   95  A    between atoms: _251  and  _254
REMARK   96  A    between atoms: _254  and  _255
REMARK   97  A    between atoms: _258  and  _260
REMARK   98  A    between atoms: _260  and  _261
REMARK   99  A    between atoms: _264  and  _266
REMARK  100  A    between atoms: _266  and  _267
REMARK  101  A    between atoms: _269  and  _271
REMARK  102  A    between atoms: _271  and  _272
REMARK  103  A    between atoms: _271  and  _274
REMARK  104  A    between atoms: _274  and  _275
REMARK  105  A    between atoms: _278  and  _280
REMARK  106  A    between atoms: _280  and  _281
REMARK  107  A    between atoms: _280  and  _283
REMARK  108  A    between atoms: _283  and  _284
REMARK  109  A    between atoms: _287  and  _289
REMARK  110  A    between atoms: _289  and  _290
REMARK  111  A    between atoms: _289  and  _292
REMARK  112  A    between atoms: _292  and  _293
REMARK  113  A    between atoms: _296  and  _298
REMARK  114  A    between atoms: _298  and  _299
REMARK  115  A    between atoms: _298  and  _301
REMARK  116  A    between atoms: _304  and  _306
REMARK  117  A    between atoms: _306  and  _307
REMARK  118  A    between atoms: _306  and  _309
REMARK  119  A    between atoms: _309  and  _310
REMARK  120  A    between atoms: _313  and  _315
REMARK  121  A    between atoms: _315  and  _316
REMARK  122  A    between atoms: _315  and  _318
REMARK  123  A    between atoms: _318  and  _319
REMARK  124  A    between atoms: _324  and  _325
REMARK  125  A    between atoms: _327  and  _329
REMARK  126  A    between atoms: _329  and  _330
REMARK  127  A    between atoms: _329  and  _332
REMARK  128  A    between atoms: _332  and  _333
REMARK  129  A    between atoms: _333  and  _334
REMARK  130  A    between atoms: _336  and  _338
REMARK  131  A    between atoms: _338  and  _339
REMARK  132  A    between atoms: _338  and  _341
REMARK  133  A    between atoms: _341  and  _342
REMARK  134  A    between atoms: _347  and  _349
REMARK  135  A    between atoms: _349  and  _350
REMARK  136  A    between atoms: _349  and  _352
REMARK  137  A    between atoms: _352  and  _353
REMARK  138  A    between atoms: _358  and  _359
REMARK  139  A    between atoms: _361  and  _363
REMARK  140  A    between atoms: _363  and  _364
REMARK  141  A    between atoms: _363  and  _366
REMARK  142  A    between atoms: _366  and  _367
REMARK  143  A    between atoms: _372  and  _373
REMARK  144  A    between atoms: _375  and  _377
REMARK  145  A    between atoms: _377  and  _378
REMARK  146  A    between atoms: _377  and  _380
REMARK  147  A    between atoms: _380  and  _381
REMARK  148  A    between atoms: _384  and  _386
REMARK  149  A    between atoms: _386  and  _387
REMARK  150  A    between atoms: _386  and  _389
REMARK  151  A    between atoms: _389  and  _390
REMARK  152  A    between atoms: _395  and  _397
REMARK  153  A    between atoms: _397  and  _398
REMARK  154  A    between atoms: _397  and  _400
REMARK  155  A    between atoms: _400  and  _401
REMARK  156  A    between atoms: _401  and  _402
REMARK  157  A    between atoms: _407  and  _409
REMARK  158  A    between atoms: _409  and  _410
REMARK  159  A    between atoms: _409  and  _412
REMARK  160  A    between atoms: _412  and  _413
REMARK  161  A    between atoms: _416  and  _418
REMARK  162  A    between atoms: _418  and  _419
REMARK  163  A    between atoms: _421  and  _423
REMARK  164  A    between atoms: _423  and  _424
REMARK  165  A    between atoms: _423  and  _426
REMARK  166  A    between atoms: _430  and  _431
REMARK  167  A    between atoms: _436  and  _438
REMARK  168  A    between atoms: _438  and  _439
REMARK  169  A    between atoms: _442  and  _444
REMARK  170  A    between atoms: _444  and  _445
REMARK  171  A    between atoms: _444  and  _447
REMARK  172  A    between atoms: _447  and  _448
REMARK  173  A    between atoms: _454  and  _456
REMARK  174  A    between atoms: _456  and  _457
REMARK  175  A    between atoms: _456  and  _459
REMARK  176  A    between atoms: _459  and  _460
REMARK  177  A    between atoms: _463  and  _465
REMARK  178  A    between atoms: _465  and  _466
REMARK  179  A    between atoms: _465  and  _468
REMARK  180  A    between atoms: _468  and  _469
REMARK  181  A    between atoms: _469  and  _470
REMARK  182  A    between atoms: _473  and  _475
REMARK  183  A    between atoms: _475  and  _476
REMARK  184  A    between atoms: _475  and  _478
REMARK  185  A    between atoms: _478  and  _479
REMARK  186  A    between atoms: _484  and  _486
REMARK  187  A    between atoms: _486  and  _487
REMARK  188  A    between atoms: _489  and  _491
REMARK  189  A    between atoms: _491  and  _492
REMARK  190  A    between atoms: _491  and  _494
REMARK  191  A    between atoms: _494  and  _495
REMARK  192  A    between atoms: _495  and  _496
REMARK  193  A    between atoms: _498  and  _500
REMARK  194  A    between atoms: _500  and  _501
REMARK  195  A    between atoms: _503  and  _505
REMARK  196  A    between atoms: _505  and  _506
REMARK  197  A    between atoms: _505  and  _508
REMARK  198  A    between atoms: _508  and  _509
REMARK  199  A    between atoms: _519  and  _521
REMARK  200  A    between atoms: _521  and  _522
REMARK  201  A    between atoms: _525  and  _527
REMARK  202  A    between atoms: _527  and  _528
REMARK  203  A    between atoms: _527  and  _530
REMARK  204  A    between atoms: _530  and  _531
REMARK  205  A    between atoms: _534  and  _536
REMARK  206  A    between atoms: _536  and  _537
REMARK  207  A    between atoms: _536  and  _539
REMARK  208  A    between atoms: _539  and  _540
REMARK  209  A    between atoms: _545  and  _547
REMARK  210  A    between atoms: _547  and  _548
REMARK  211  A    between atoms: _547  and  _550
REMARK  212  A    between atoms: _550  and  _551
REMARK  213  A    between atoms: _557  and  _559
REMARK  214  A    between atoms: _559  and  _560
REMARK  215  A    between atoms: _559  and  _562
REMARK  216  A    between atoms: _562  and  _563
REMARK  217  A    between atoms: _563  and  _564
REMARK  218  A    between atoms: _567  and  _569
REMARK  219  A    between atoms: _569  and  _570
REMARK  220  A    between atoms: _569  and  _572
REMARK  221  A    between atoms: _572  and  _573
REMARK  222  A    between atoms: _583  and  _585
REMARK  223  A    between atoms: _585  and  _586
REMARK  224  A    between atoms: _585  and  _588
REMARK  225  A    between atoms: _588  and  _589
REMARK  226  A    between atoms: _592  and  _594
REMARK  227  A    between atoms: _594  and  _595
REMARK  228  A    between atoms: _594  and  _597
REMARK  229  A    between atoms: _597  and  _598
REMARK  230  A    between atoms: _600  and  _602
REMARK  231  A    between atoms: _602  and  _603
REMARK  232  A    between atoms: _605  and  _607
REMARK  233  A    between atoms: _607  and  _608
REMARK  234  A    between atoms: _607  and  _610
REMARK  235  A    between atoms: _610  and  _611
REMARK  236  A    between atoms: _614  and  _616
REMARK  237  A    between atoms: _616  and  _617
REMARK  238  A    between atoms: _616  and  _619
REMARK  239  A    between atoms: _619  and  _620
REMARK  240  A    between atoms: _620  and  _621
REMARK  241  A    between atoms: _626  and  _628
REMARK  242  A    between atoms: _628  and  _629
REMARK  243  A    between atoms: _628  and  _631
REMARK  244  A    between atoms: _631  and  _632
REMARK                            x       y       z     vdW  Elec       q    Type
REMARK                         _______ _______ _______ _____ _____    ______ ____
ROOT
ATOM      1  O   HOH     1      -7.781  34.313  19.301  0.00  0.00    +0.000 OA
ENDROOT
TORSDOF 0
REMARK  Name = ../refined-set-2016/3wq6/3wq6_pocket.pdb
REMARK  244 active torsions:
REMARK  status: ('A' for Active; 'I' for Inactive)
REMARK    1  A    between atoms: _1  and  _3
REMARK    2  A    between atoms: _3  and  _4
REMARK    3  A    between atoms: _7  and  _9
REMARK    4  A    between atoms: _9  and  _10
REMARK    5  A    between atoms: _9  and  _12
REMARK    6  A    between atoms: _12  and  _13
REMARK    7  A    between atoms: _15  and  _17
REMARK    8  A    between atoms: _17  and  _18
REMARK    9  A    between atoms: _17  and  _20
REMARK   10  A    between atoms: _20  and  _21
REMARK   11  A    between atoms: _23  and  _25
REMARK   12  A    between atoms: _25  and  _26
REMARK   13  A    between atoms: _29  and  _31
REMARK   14  A    between atoms: _31  and  _32
REMARK   15  A    between atoms: _31  and  _34
REMARK   16  A    between atoms: _34  and  _35
REMARK   17  A    between atoms: _40  and  _41
REMARK   18  A    between atoms: _43  and  _45
REMARK   19  A    between atoms: _45  and  _46
REMARK   20  A    between atoms: _45  and  _48
REMARK   21  A    between atoms: _48  and  _49
REMARK   22  A    between atoms: _49  and  _50
REMARK   23  A    between atoms: _55  and  _57
REMARK   24  A    between atoms: _57  and  _58
REMARK   25  A    between atoms: _57  and  _60
REMARK   26  A    between atoms: _60  and  _61
REMARK   27  A    between atoms: _67  and  _69
REMARK   28  A    between atoms: _69  and  _70
REMARK   29  A    between atoms: _69  and  _72
REMARK   30  A    between atoms: _72  and  _73
REMARK   31  A    between atoms: _83  and  _85
REMARK   32  A    between atoms: _85  and  _86
REMARK   33  A    between atoms: _85  and  _88
REMARK   34  A    between atoms: _88  and  _89
REMARK   35  A    between atoms: _91  and  _93
REMARK   36  A    between atoms: _93  and  _94
REMARK   37  A    between atoms: _93  and  _96
REMARK   38  A    between atoms: _96  and  _97
REMARK   39  A    between atoms: _97  and  _98
REMARK   40  A    between atoms: _98  and  _99
REMARK   41  A    between atoms: _108  and  _110
REMARK   42  A    between atoms: _110  and  _111
REMARK   43  A    between atoms: _110  and  _113
REMARK   44  A    between atoms: _113  and  _114
REMARK   45  A    between atoms: _117  and  _119
REMARK   46  A    between atoms: _119  and  _120
REMARK   47  A    between atoms: _119  and  _122
REMARK   48  A    between atoms: _122  and  _123
REMARK   49  A    between atoms: _128  and  _130
REMARK   50  A    between atoms: _130  and  _131
REMARK   51  A    between atoms: _130  and  _133
REMARK   52  A    between atoms: _133  and  _134
REMARK   53  A    between atoms: _144  and  _146
REMARK   54  A    between atoms: _146  and  _147
REMARK   55  A    between atoms: _146  and  _149
REMARK   56  A    between atoms: _149  and  _150
REMARK   57  A    between atoms: _155  and  _157
REMARK   58  A    between atoms: _157  and  _158
REMARK   59  A    between atoms: _157  and  _160
REMARK   60  A    between atoms: _160  and  _161
REMARK   61  A    between atoms: _161  and  _162
REMARK   62  A    between atoms: _165  and  _167
REMARK   63  A    between atoms: _167  and  _168
REMARK   64  A    between atoms: _167  and  _170
REMARK   65  A    between atoms: _170  and  _171
REMARK   66  A    between atoms: _181  and  _183
REMARK   67  A    between atoms: _183  and  _184
REMARK   68  A    between atoms: _183  and  _186
REMARK   69  A    between atoms: _186  and  _187
REMARK   70  A    between atoms: _189  and  _191
REMARK   71  A    between atoms: _191  and  _192
REMARK   72  A    between atoms: _191  and  _194
REMARK   73  A    between atoms: _194  and  _195
REMARK   74  A    between atoms: _200  and  _201
REMARK   75  A    between atoms: _203  and  _205
REMARK   76  A    between atoms: _205  and  _206
REMARK   77  A    between atoms: _205  and  _208
REMARK   78  A    between atoms: _208  and  _209
REMARK   79  A    between atoms: _211  and  _213
REMARK   80  A    between atoms: _213  and  _214
REMARK   81  A    between atoms: _213  and  _216
REMARK   82  A    between atoms: _216  and  _217
REMARK   83  A    between atoms: _222  and  _223
REMARK   84  A    between atoms: _225  and  _227
REMARK   85  A    between atoms: _227  and  _228
REMARK   86  A    between atoms: _230  and  _232
REMARK   87  A    between atoms: _232  and  _233
REMARK   88  A    between atoms: _235  and  _237
REMARK   89  A    between atoms: _237  and  _238
REMARK   90  A    between atoms: _237  and  _240
REMARK   91  A    between atoms: _240  and  _241
REMARK   92  A    between atoms: _246  and  _247
REMARK   93  A    between atoms: _249  and  _251
REMARK   94  A    between atoms: _251  and  _252
REMARK   95  A    between atoms: _251  and  _254
REMARK   96  A    between atoms: _254  and  _255
REMARK   97  A    between atoms: _258  and  _260
REMARK   98  A    between atoms: _260  and  _261
REMARK   99  A    between atoms: _264  and  _266
REMARK  100  A    between atoms: _266  and  _267
REMARK  101  A    between atoms: _269  and  _271
REMARK  102  A    between atoms: _271  and  _272
REMARK  103  A    between atoms: _271  and  _274
REMARK  104  A    between atoms: _274  and  _275
REMARK  105  A    between atoms: _278  and  _280
REMARK  106  A    between atoms: _280  and  _281
REMARK  107  A    between atoms: _280  and  _283
REMARK  108  A    between atoms: _283  and  _284
REMARK  109  A    between atoms: _287  and  _289
REMARK  110  A    between atoms: _289  and  _290
REMARK  111  A    between atoms: _289  and  _292
REMARK  112  A    between atoms: _292  and  _293
REMARK  113  A    between atoms: _296  and  _298
REMARK  114  A    between atoms: _298  and  _299
REMARK  115  A    between atoms: _298  and  _301
REMARK  116  A    between atoms: _304  and  _306
REMARK  117  A    between atoms: _306  and  _307
REMARK  118  A    between atoms: _306  and  _309
REMARK  119  A    between atoms: _309  and  _310
REMARK  120  A    between atoms: _313  and  _315
REMARK  121  A    between atoms: _315  and  _316
REMARK  122  A    between atoms: _315  and  _318
REMARK  123  A    between atoms: _318  and  _319
REMARK  124  A    between atoms: _324  and  _325
REMARK  125  A    between atoms: _327  and  _329
REMARK  126  A    between atoms: _329  and  _330
REMARK  127  A    between atoms: _329  and  _332
REMARK  128  A    between atoms: _332  and  _333
REMARK  129  A    between atoms: _333  and  _334
REMARK  130  A    between atoms: _336  and  _338
REMARK  131  A    between atoms: _338  and  _339
REMARK  132  A    between atoms: _338  and  _341
REMARK  133  A    between atoms: _341  and  _342
REMARK  134  A    between atoms: _347  and  _349
REMARK  135  A    between atoms: _349  and  _350
REMARK  136  A    between atoms: _349  and  _352
REMARK  137  A    between atoms: _352  and  _353
REMARK  138  A    between atoms: _358  and  _359
REMARK  139  A    between atoms: _361  and  _363
REMARK  140  A    between atoms: _363  and  _364
REMARK  141  A    between atoms: _363  and  _366
REMARK  142  A    between atoms: _366  and  _367
REMARK  143  A    between atoms: _372  and  _373
REMARK  144  A    between atoms: _375  and  _377
REMARK  145  A    between atoms: _377  and  _378
REMARK  146  A    between atoms: _377  and  _380
REMARK  147  A    between atoms: _380  and  _381
REMARK  148  A    between atoms: _384  and  _386
REMARK  149  A    between atoms: _386  and  _387
REMARK  150  A    between atoms: _386  and  _389
REMARK  151  A    between atoms: _389  and  _390
REMARK  152  A    between atoms: _395  and  _397
REMARK  153  A    between atoms: _397  and  _398
REMARK  154  A    between atoms: _397  and  _400
REMARK  155  A    between atoms: _400  and  _401
REMARK  156  A    between atoms: _401  and  _402
REMARK  157  A    between atoms: _407  and  _409
REMARK  158  A    between atoms: _409  and  _410
REMARK  159  A    between atoms: _409  and  _412
REMARK  160  A    between atoms: _412  and  _413
REMARK  161  A    between atoms: _416  and  _418
REMARK  162  A    between atoms: _418  and  _419
REMARK  163  A    between atoms: _421  and  _423
REMARK  164  A    between atoms: _423  and  _424
REMARK  165  A    between atoms: _423  and  _426
REMARK  166  A    between atoms: _430  and  _431
REMARK  167  A    between atoms: _436  and  _438
REMARK  168  A    between atoms: _438  and  _439
REMARK  169  A    between atoms: _442  and  _444
REMARK  170  A    between atoms: _444  and  _445
REMARK  171  A    between atoms: _444  and  _447
REMARK  172  A    between atoms: _447  and  _448
REMARK  173  A    between atoms: _454  and  _456
REMARK  174  A    between atoms: _456  and  _457
REMARK  175  A    between atoms: _456  and  _459
REMARK  176  A    between atoms: _459  and  _460
REMARK  177  A    between atoms: _463  and  _465
REMARK  178  A    between atoms: _465  and  _466
REMARK  179  A    between atoms: _465  and  _468
REMARK  180  A    between atoms: _468  and  _469
REMARK  181  A    between atoms: _469  and  _470
REMARK  182  A    between atoms: _473  and  _475
REMARK  183  A    between atoms: _475  and  _476
REMARK  184  A    between atoms: _475  and  _478
REMARK  185  A    between atoms: _478  and  _479
REMARK  186  A    between atoms: _484  and  _486
REMARK  187  A    between atoms: _486  and  _487
REMARK  188  A    between atoms: _489  and  _491
REMARK  189  A    between atoms: _491  and  _492
REMARK  190  A    between atoms: _491  and  _494
REMARK  191  A    between atoms: _494  and  _495
REMARK  192  A    between atoms: _495  and  _496
REMARK  193  A    between atoms: _498  and  _500
REMARK  194  A    between atoms: _500  and  _501
REMARK  195  A    between atoms: _503  and  _505
REMARK  196  A    between atoms: _505  and  _506
REMARK  197  A    between atoms: _505  and  _508
REMARK  198  A    between atoms: _508  and  _509
REMARK  199  A    between atoms: _519  and  _521
REMARK  200  A    between atoms: _521  and  _522
REMARK  201  A    between atoms: _525  and  _527
REMARK  202  A    between atoms: _527  and  _528
REMARK  203  A    between atoms: _527  and  _530
REMARK  204  A    between atoms: _530  and  _531
REMARK  205  A    between atoms: _534  and  _536
REMARK  206  A    between atoms: _536  and  _537
REMARK  207  A    between atoms: _536  and  _539
REMARK  208  A    between atoms: _539  and  _540
REMARK  209  A    between atoms: _545  and  _547
REMARK  210  A    between atoms: _547  and  _548
REMARK  211  A    between atoms: _547  and  _550
REMARK  212  A    between atoms: _550  and  _551
REMARK  213  A    between atoms: _557  and  _559
REMARK  214  A    between atoms: _559  and  _560
REMARK  215  A    between atoms: _559  and  _562
REMARK  216  A    between atoms: _562  and  _563
REMARK  217  A    between atoms: _563  and  _564
REMARK  218  A    between atoms: _567  and  _569
REMARK  219  A    between atoms: _569  and  _570
REMARK  220  A    between atoms: _569  and  _572
REMARK  221  A    between atoms: _572  and  _573
REMARK  222  A    between atoms: _583  and  _585
REMARK  223  A    between atoms: _585  and  _586
REMARK  224  A    between atoms: _585  and  _588
REMARK  225  A    between atoms: _588  and  _589
REMARK  226  A    between atoms: _592  and  _594
REMARK  227  A    between atoms: _594  and  _595
REMARK  228  A    between atoms: _594  and  _597
REMARK  229  A    between atoms: _597  and  _598
REMARK  230  A    between atoms: _600  and  _602
REMARK  231  A    between atoms: _602  and  _603
REMARK  232  A    between atoms: _605  and  _607
REMARK  233  A    between atoms: _607  and  _608
REMARK  234  A    between atoms: _607  and  _610
REMARK  235  A    between atoms: _610  and  _611
REMARK  236  A    between atoms: _614  and  _616
REMARK  237  A    between atoms: _616  and  _617
REMARK  238  A    between atoms: _616  and  _619
REMARK  239  A    between atoms: _619  and  _620
REMARK  240  A    between atoms: _620  and  _621
REMARK  241  A    between atoms: _626  and  _628
REMARK  242  A    between atoms: _628  and  _629
REMARK  243  A    between atoms: _628  and  _631
REMARK  244  A    between atoms: _631  and  _632
REMARK                            x       y       z     vdW  Elec       q    Type
REMARK                         _______ _______ _______ _____ _____    ______ ____
ROOT
ATOM      1  O   HOH     1      -8.752  39.420  13.814  0.00  0.00    +0.000 OA
ENDROOT
TORSDOF 0
REMARK  Name = ../refined-set-2016/3wq6/3wq6_pocket.pdb
REMARK  244 active torsions:
REMARK  status: ('A' for Active; 'I' for Inactive)
REMARK    1  A    between atoms: _1  and  _3
REMARK    2  A    between atoms: _3  and  _4
REMARK    3  A    between atoms: _7  and  _9
REMARK    4  A    between atoms: _9  and  _10
REMARK    5  A    between atoms: _9  and  _12
REMARK    6  A    between atoms: _12  and  _13
REMARK    7  A    between atoms: _15  and  _17
REMARK    8  A    between atoms: _17  and  _18
REMARK    9  A    between atoms: _17  and  _20
REMARK   10  A    between atoms: _20  and  _21
REMARK   11  A    between atoms: _23  and  _25
REMARK   12  A    between atoms: _25  and  _26
REMARK   13  A    between atoms: _29  and  _31
REMARK   14  A    between atoms: _31  and  _32
REMARK   15  A    between atoms: _31  and  _34
REMARK   16  A    between atoms: _34  and  _35
REMARK   17  A    between atoms: _40  and  _41
REMARK   18  A    between atoms: _43  and  _45
REMARK   19  A    between atoms: _45  and  _46
REMARK   20  A    between atoms: _45  and  _48
REMARK   21  A    between atoms: _48  and  _49
REMARK   22  A    between atoms: _49  and  _50
REMARK   23  A    between atoms: _55  and  _57
REMARK   24  A    between atoms: _57  and  _58
REMARK   25  A    between atoms: _57  and  _60
REMARK   26  A    between atoms: _60  and  _61
REMARK   27  A    between atoms: _67  and  _69
REMARK   28  A    between atoms: _69  and  _70
REMARK   29  A    between atoms: _69  and  _72
REMARK   30  A    between atoms: _72  and  _73
REMARK   31  A    between atoms: _83  and  _85
REMARK   32  A    between atoms: _85  and  _86
REMARK   33  A    between atoms: _85  and  _88
REMARK   34  A    between atoms: _88  and  _89
REMARK   35  A    between atoms: _91  and  _93
REMARK   36  A    between atoms: _93  and  _94
REMARK   37  A    between atoms: _93  and  _96
REMARK   38  A    between atoms: _96  and  _97
REMARK   39  A    between atoms: _97  and  _98
REMARK   40  A    between atoms: _98  and  _99
REMARK   41  A    between atoms: _108  and  _110
REMARK   42  A    between atoms: _110  and  _111
REMARK   43  A    between atoms: _110  and  _113
REMARK   44  A    between atoms: _113  and  _114
REMARK   45  A    between atoms: _117  and  _119
REMARK   46  A    between atoms: _119  and  _120
REMARK   47  A    between atoms: _119  and  _122
REMARK   48  A    between atoms: _122  and  _123
REMARK   49  A    between atoms: _128  and  _130
REMARK   50  A    between atoms: _130  and  _131
REMARK   51  A    between atoms: _130  and  _133
REMARK   52  A    between atoms: _133  and  _134
REMARK   53  A    between atoms: _144  and  _146
REMARK   54  A    between atoms: _146  and  _147
REMARK   55  A    between atoms: _146  and  _149
REMARK   56  A    between atoms: _149  and  _150
REMARK   57  A    between atoms: _155  and  _157
REMARK   58  A    between atoms: _157  and  _158
REMARK   59  A    between atoms: _157  and  _160
REMARK   60  A    between atoms: _160  and  _161
REMARK   61  A    between atoms: _161  and  _162
REMARK   62  A    between atoms: _165  and  _167
REMARK   63  A    between atoms: _167  and  _168
REMARK   64  A    between atoms: _167  and  _170
REMARK   65  A    between atoms: _170  and  _171
REMARK   66  A    between atoms: _181  and  _183
REMARK   67  A    between atoms: _183  and  _184
REMARK   68  A    between atoms: _183  and  _186
REMARK   69  A    between atoms: _186  and  _187
REMARK   70  A    between atoms: _189  and  _191
REMARK   71  A    between atoms: _191  and  _192
REMARK   72  A    between atoms: _191  and  _194
REMARK   73  A    between atoms: _194  and  _195
REMARK   74  A    between atoms: _200  and  _201
REMARK   75  A    between atoms: _203  and  _205
REMARK   76  A    between atoms: _205  and  _206
REMARK   77  A    between atoms: _205  and  _208
REMARK   78  A    between atoms: _208  and  _209
REMARK   79  A    between atoms: _211  and  _213
REMARK   80  A    between atoms: _213  and  _214
REMARK   81  A    between atoms: _213  and  _216
REMARK   82  A    between atoms: _216  and  _217
REMARK   83  A    between atoms: _222  and  _223
REMARK   84  A    between atoms: _225  and  _227
REMARK   85  A    between atoms: _227  and  _228
REMARK   86  A    between atoms: _230  and  _232
REMARK   87  A    between atoms: _232  and  _233
REMARK   88  A    between atoms: _235  and  _237
REMARK   89  A    between atoms: _237  and  _238
REMARK   90  A    between atoms: _237  and  _240
REMARK   91  A    between atoms: _240  and  _241
REMARK   92  A    between atoms: _246  and  _247
REMARK   93  A    between atoms: _249  and  _251
REMARK   94  A    between atoms: _251  and  _252
REMARK   95  A    between atoms: _251  and  _254
REMARK   96  A    between atoms: _254  and  _255
REMARK   97  A    between atoms: _258  and  _260
REMARK   98  A    between atoms: _260  and  _261
REMARK   99  A    between atoms: _264  and  _266
REMARK  100  A    between atoms: _266  and  _267
REMARK  101  A    between atoms: _269  and  _271
REMARK  102  A    between atoms: _271  and  _272
REMARK  103  A    between atoms: _271  and  _274
REMARK  104  A    between atoms: _274  and  _275
REMARK  105  A    between atoms: _278  and  _280
REMARK  106  A    between atoms: _280  and  _281
REMARK  107  A    between atoms: _280  and  _283
REMARK  108  A    between atoms: _283  and  _284
REMARK  109  A    between atoms: _287  and  _289
REMARK  110  A    between atoms: _289  and  _290
REMARK  111  A    between atoms: _289  and  _292
REMARK  112  A    between atoms: _292  and  _293
REMARK  113  A    between atoms: _296  and  _298
REMARK  114  A    between atoms: _298  and  _299
REMARK  115  A    between atoms: _298  and  _301
REMARK  116  A    between atoms: _304  and  _306
REMARK  117  A    between atoms: _306  and  _307
REMARK  118  A    between atoms: _306  and  _309
REMARK  119  A    between atoms: _309  and  _310
REMARK  120  A    between atoms: _313  and  _315
REMARK  121  A    between atoms: _315  and  _316
REMARK  122  A    between atoms: _315  and  _318
REMARK  123  A    between atoms: _318  and  _319
REMARK  124  A    between atoms: _324  and  _325
REMARK  125  A    between atoms: _327  and  _329
REMARK  126  A    between atoms: _329  and  _330
REMARK  127  A    between atoms: _329  and  _332
REMARK  128  A    between atoms: _332  and  _333
REMARK  129  A    between atoms: _333  and  _334
REMARK  130  A    between atoms: _336  and  _338
REMARK  131  A    between atoms: _338  and  _339
REMARK  132  A    between atoms: _338  and  _341
REMARK  133  A    between atoms: _341  and  _342
REMARK  134  A    between atoms: _347  and  _349
REMARK  135  A    between atoms: _349  and  _350
REMARK  136  A    between atoms: _349  and  _352
REMARK  137  A    between atoms: _352  and  _353
REMARK  138  A    between atoms: _358  and  _359
REMARK  139  A    between atoms: _361  and  _363
REMARK  140  A    between atoms: _363  and  _364
REMARK  141  A    between atoms: _363  and  _366
REMARK  142  A    between atoms: _366  and  _367
REMARK  143  A    between atoms: _372  and  _373
REMARK  144  A    between atoms: _375  and  _377
REMARK  145  A    between atoms: _377  and  _378
REMARK  146  A    between atoms: _377  and  _380
REMARK  147  A    between atoms: _380  and  _381
REMARK  148  A    between atoms: _384  and  _386
REMARK  149  A    between atoms: _386  and  _387
REMARK  150  A    between atoms: _386  and  _389
REMARK  151  A    between atoms: _389  and  _390
REMARK  152  A    between atoms: _395  and  _397
REMARK  153  A    between atoms: _397  and  _398
REMARK  154  A    between atoms: _397  and  _400
REMARK  155  A    between atoms: _400  and  _401
REMARK  156  A    between atoms: _401  and  _402
REMARK  157  A    between atoms: _407  and  _409
REMARK  158  A    between atoms: _409  and  _410
REMARK  159  A    between atoms: _409  and  _412
REMARK  160  A    between atoms: _412  and  _413
REMARK  161  A    between atoms: _416  and  _418
REMARK  162  A    between atoms: _418  and  _419
REMARK  163  A    between atoms: _421  and  _423
REMARK  164  A    between atoms: _423  and  _424
REMARK  165  A    between atoms: _423  and  _426
REMARK  166  A    between atoms: _430  and  _431
REMARK  167  A    between atoms: _436  and  _438
REMARK  168  A    between atoms: _438  and  _439
REMARK  169  A    between atoms: _442  and  _444
REMARK  170  A    between atoms: _444  and  _445
REMARK  171  A    between atoms: _444  and  _447
REMARK  172  A    between atoms: _447  and  _448
REMARK  173  A    between atoms: _454  and  _456
REMARK  174  A    between atoms: _456  and  _457
REMARK  175  A    between atoms: _456  and  _459
REMARK  176  A    between atoms: _459  and  _460
REMARK  177  A    between atoms: _463  and  _465
REMARK  178  A    between atoms: _465  and  _466
REMARK  179  A    between atoms: _465  and  _468
REMARK  180  A    between atoms: _468  and  _469
REMARK  181  A    between atoms: _469  and  _470
REMARK  182  A    between atoms: _473  and  _475
REMARK  183  A    between atoms: _475  and  _476
REMARK  184  A    between atoms: _475  and  _478
REMARK  185  A    between atoms: _478  and  _479
REMARK  186  A    between atoms: _484  and  _486
REMARK  187  A    between atoms: _486  and  _487
REMARK  188  A    between atoms: _489  and  _491
REMARK  189  A    between atoms: _491  and  _492
REMARK  190  A    between atoms: _491  and  _494
REMARK  191  A    between atoms: _494  and  _495
REMARK  192  A    between atoms: _495  and  _496
REMARK  193  A    between atoms: _498  and  _500
REMARK  194  A    between atoms: _500  and  _501
REMARK  195  A    between atoms: _503  and  _505
REMARK  196  A    between atoms: _505  and  _506
REMARK  197  A    between atoms: _505  and  _508
REMARK  198  A    between atoms: _508  and  _509
REMARK  199  A    between atoms: _519  and  _521
REMARK  200  A    between atoms: _521  and  _522
REMARK  201  A    between atoms: _525  and  _527
REMARK  202  A    between atoms: _527  and  _528
REMARK  203  A    between atoms: _527  and  _530
REMARK  204  A    between atoms: _530  and  _531
REMARK  205  A    between atoms: _534  and  _536
REMARK  206  A    between atoms: _536  and  _537
REMARK  207  A    between atoms: _536  and  _539
REMARK  208  A    between atoms: _539  and  _540
REMARK  209  A    between atoms: _545  and  _547
REMARK  210  A    between atoms: _547  and  _548
REMARK  211  A    between atoms: _547  and  _550
REMARK  212  A    between atoms: _550  and  _551
REMARK  213  A    between atoms: _557  and  _559
REMARK  214  A    between atoms: _559  and  _560
REMARK  215  A    between atoms: _559  and  _562
REMARK  216  A    between atoms: _562  and  _563
REMARK  217  A    between atoms: _563  and  _564
REMARK  218  A    between atoms: _567  and  _569
REMARK  219  A    between atoms: _569  and  _570
REMARK  220  A    between atoms: _569  and  _572
REMARK  221  A    between atoms: _572  and  _573
REMARK  222  A    between atoms: _583  and  _585
REMARK  223  A    between atoms: _585  and  _586
REMARK  224  A    between atoms: _585  and  _588
REMARK  225  A    between atoms: _588  and  _589
REMARK  226  A    between atoms: _592  and  _594
REMARK  227  A    between atoms: _594  and  _595
REMARK  228  A    between atoms: _594  and  _597
REMARK  229  A    between atoms: _597  and  _598
REMARK  230  A    between atoms: _600  and  _602
REMARK  231  A    between atoms: _602  and  _603
REMARK  232  A    between atoms: _605  and  _607
REMARK  233  A    between atoms: _607  and  _608
REMARK  234  A    between atoms: _607  and  _610
REMARK  235  A    between atoms: _610  and  _611
REMARK  236  A    between atoms: _614  and  _616
REMARK  237  A    between atoms: _616  and  _617
REMARK  238  A    between atoms: _616  and  _619
REMARK  239  A    between atoms: _619  and  _620
REMARK  240  A    between atoms: _620  and  _621
REMARK  241  A    between atoms: _626  and  _628
REMARK  242  A    between atoms: _628  and  _629
REMARK  243  A    between atoms: _628  and  _631
REMARK  244  A    between atoms: _631  and  _632
REMARK                            x       y       z     vdW  Elec       q    Type
REMARK                         _______ _______ _______ _____ _____    ______ ____
ROOT
ATOM      1  O   HOH     1      -7.479  37.031  16.633  0.00  0.00    +0.000 OA
ENDROOT
TORSDOF 0
REMARK  Name = ../refined-set-2016/3wq6/3wq6_pocket.pdb
REMARK  244 active torsions:
REMARK  status: ('A' for Active; 'I' for Inactive)
REMARK    1  A    between atoms: _1  and  _3
REMARK    2  A    between atoms: _3  and  _4
REMARK    3  A    between atoms: _7  and  _9
REMARK    4  A    between atoms: _9  and  _10
REMARK    5  A    between atoms: _9  and  _12
REMARK    6  A    between atoms: _12  and  _13
REMARK    7  A    between atoms: _15  and  _17
REMARK    8  A    between atoms: _17  and  _18
REMARK    9  A    between atoms: _17  and  _20
REMARK   10  A    between atoms: _20  and  _21
REMARK   11  A    between atoms: _23  and  _25
REMARK   12  A    between atoms: _25  and  _26
REMARK   13  A    between atoms: _29  and  _31
REMARK   14  A    between atoms: _31  and  _32
REMARK   15  A    between atoms: _31  and  _34
REMARK   16  A    between atoms: _34  and  _35
REMARK   17  A    between atoms: _40  and  _41
REMARK   18  A    between atoms: _43  and  _45
REMARK   19  A    between atoms: _45  and  _46
REMARK   20  A    between atoms: _45  and  _48
REMARK   21  A    between atoms: _48  and  _49
REMARK   22  A    between atoms: _49  and  _50
REMARK   23  A    between atoms: _55  and  _57
REMARK   24  A    between atoms: _57  and  _58
REMARK   25  A    between atoms: _57  and  _60
REMARK   26  A    between atoms: _60  and  _61
REMARK   27  A    between atoms: _67  and  _69
REMARK   28  A    between atoms: _69  and  _70
REMARK   29  A    between atoms: _69  and  _72
REMARK   30  A    between atoms: _72  and  _73
REMARK   31  A    between atoms: _83  and  _85
REMARK   32  A    between atoms: _85  and  _86
REMARK   33  A    between atoms: _85  and  _88
REMARK   34  A    between atoms: _88  and  _89
REMARK   35  A    between atoms: _91  and  _93
REMARK   36  A    between atoms: _93  and  _94
REMARK   37  A    between atoms: _93  and  _96
REMARK   38  A    between atoms: _96  and  _97
REMARK   39  A    between atoms: _97  and  _98
REMARK   40  A    between atoms: _98  and  _99
REMARK   41  A    between atoms: _108  and  _110
REMARK   42  A    between atoms: _110  and  _111
REMARK   43  A    between atoms: _110  and  _113
REMARK   44  A    between atoms: _113  and  _114
REMARK   45  A    between atoms: _117  and  _119
REMARK   46  A    between atoms: _119  and  _120
REMARK   47  A    between atoms: _119  and  _122
REMARK   48  A    between atoms: _122  and  _123
REMARK   49  A    between atoms: _128  and  _130
REMARK   50  A    between atoms: _130  and  _131
REMARK   51  A    between atoms: _130  and  _133
REMARK   52  A    between atoms: _133  and  _134
REMARK   53  A    between atoms: _144  and  _146
REMARK   54  A    between atoms: _146  and  _147
REMARK   55  A    between atoms: _146  and  _149
REMARK   56  A    between atoms: _149  and  _150
REMARK   57  A    between atoms: _155  and  _157
REMARK   58  A    between atoms: _157  and  _158
REMARK   59  A    between atoms: _157  and  _160
REMARK   60  A    between atoms: _160  and  _161
REMARK   61  A    between atoms: _161  and  _162
REMARK   62  A    between atoms: _165  and  _167
REMARK   63  A    between atoms: _167  and  _168
REMARK   64  A    between atoms: _167  and  _170
REMARK   65  A    between atoms: _170  and  _171
REMARK   66  A    between atoms: _181  and  _183
REMARK   67  A    between atoms: _183  and  _184
REMARK   68  A    between atoms: _183  and  _186
REMARK   69  A    between atoms: _186  and  _187
REMARK   70  A    between atoms: _189  and  _191
REMARK   71  A    between atoms: _191  and  _192
REMARK   72  A    between atoms: _191  and  _194
REMARK   73  A    between atoms: _194  and  _195
REMARK   74  A    between atoms: _200  and  _201
REMARK   75  A    between atoms: _203  and  _205
REMARK   76  A    between atoms: _205  and  _206
REMARK   77  A    between atoms: _205  and  _208
REMARK   78  A    between atoms: _208  and  _209
REMARK   79  A    between atoms: _211  and  _213
REMARK   80  A    between atoms: _213  and  _214
REMARK   81  A    between atoms: _213  and  _216
REMARK   82  A    between atoms: _216  and  _217
REMARK   83  A    between atoms: _222  and  _223
REMARK   84  A    between atoms: _225  and  _227
REMARK   85  A    between atoms: _227  and  _228
REMARK   86  A    between atoms: _230  and  _232
REMARK   87  A    between atoms: _232  and  _233
REMARK   88  A    between atoms: _235  and  _237
REMARK   89  A    between atoms: _237  and  _238
REMARK   90  A    between atoms: _237  and  _240
REMARK   91  A    between atoms: _240  and  _241
REMARK   92  A    between atoms: _246  and  _247
REMARK   93  A    between atoms: _249  and  _251
REMARK   94  A    between atoms: _251  and  _252
REMARK   95  A    between atoms: _251  and  _254
REMARK   96  A    between atoms: _254  and  _255
REMARK   97  A    between atoms: _258  and  _260
REMARK   98  A    between atoms: _260  and  _261
REMARK   99  A    between atoms: _264  and  _266
REMARK  100  A    between atoms: _266  and  _267
REMARK  101  A    between atoms: _269  and  _271
REMARK  102  A    between atoms: _271  and  _272
REMARK  103  A    between atoms: _271  and  _274
REMARK  104  A    between atoms: _274  and  _275
REMARK  105  A    between atoms: _278  and  _280
REMARK  106  A    between atoms: _280  and  _281
REMARK  107  A    between atoms: _280  and  _283
REMARK  108  A    between atoms: _283  and  _284
REMARK  109  A    between atoms: _287  and  _289
REMARK  110  A    between atoms: _289  and  _290
REMARK  111  A    between atoms: _289  and  _292
REMARK  112  A    between atoms: _292  and  _293
REMARK  113  A    between atoms: _296  and  _298
REMARK  114  A    between atoms: _298  and  _299
REMARK  115  A    between atoms: _298  and  _301
REMARK  116  A    between atoms: _304  and  _306
REMARK  117  A    between atoms: _306  and  _307
REMARK  118  A    between atoms: _306  and  _309
REMARK  119  A    between atoms: _309  and  _310
REMARK  120  A    between atoms: _313  and  _315
REMARK  121  A    between atoms: _315  and  _316
REMARK  122  A    between atoms: _315  and  _318
REMARK  123  A    between atoms: _318  and  _319
REMARK  124  A    between atoms: _324  and  _325
REMARK  125  A    between atoms: _327  and  _329
REMARK  126  A    between atoms: _329  and  _330
REMARK  127  A    between atoms: _329  and  _332
REMARK  128  A    between atoms: _332  and  _333
REMARK  129  A    between atoms: _333  and  _334
REMARK  130  A    between atoms: _336  and  _338
REMARK  131  A    between atoms: _338  and  _339
REMARK  132  A    between atoms: _338  and  _341
REMARK  133  A    between atoms: _341  and  _342
REMARK  134  A    between atoms: _347  and  _349
REMARK  135  A    between atoms: _349  and  _350
REMARK  136  A    between atoms: _349  and  _352
REMARK  137  A    between atoms: _352  and  _353
REMARK  138  A    between atoms: _358  and  _359
REMARK  139  A    between atoms: _361  and  _363
REMARK  140  A    between atoms: _363  and  _364
REMARK  141  A    between atoms: _363  and  _366
REMARK  142  A    between atoms: _366  and  _367
REMARK  143  A    between atoms: _372  and  _373
REMARK  144  A    between atoms: _375  and  _377
REMARK  145  A    between atoms: _377  and  _378
REMARK  146  A    between atoms: _377  and  _380
REMARK  147  A    between atoms: _380  and  _381
REMARK  148  A    between atoms: _384  and  _386
REMARK  149  A    between atoms: _386  and  _387
REMARK  150  A    between atoms: _386  and  _389
REMARK  151  A    between atoms: _389  and  _390
REMARK  152  A    between atoms: _395  and  _397
REMARK  153  A    between atoms: _397  and  _398
REMARK  154  A    between atoms: _397  and  _400
REMARK  155  A    between atoms: _400  and  _401
REMARK  156  A    between atoms: _401  and  _402
REMARK  157  A    between atoms: _407  and  _409
REMARK  158  A    between atoms: _409  and  _410
REMARK  159  A    between atoms: _409  and  _412
REMARK  160  A    between atoms: _412  and  _413
REMARK  161  A    between atoms: _416  and  _418
REMARK  162  A    between atoms: _418  and  _419
REMARK  163  A    between atoms: _421  and  _423
REMARK  164  A    between atoms: _423  and  _424
REMARK  165  A    between atoms: _423  and  _426
REMARK  166  A    between atoms: _430  and  _431
REMARK  167  A    between atoms: _436  and  _438
REMARK  168  A    between atoms: _438  and  _439
REMARK  169  A    between atoms: _442  and  _444
REMARK  170  A    between atoms: _444  and  _445
REMARK  171  A    between atoms: _444  and  _447
REMARK  172  A    between atoms: _447  and  _448
REMARK  173  A    between atoms: _454  and  _456
REMARK  174  A    between atoms: _456  and  _457
REMARK  175  A    between atoms: _456  and  _459
REMARK  176  A    between atoms: _459  and  _460
REMARK  177  A    between atoms: _463  and  _465
REMARK  178  A    between atoms: _465  and  _466
REMARK  179  A    between atoms: _465  and  _468
REMARK  180  A    between atoms: _468  and  _469
REMARK  181  A    between atoms: _469  and  _470
REMARK  182  A    between atoms: _473  and  _475
REMARK  183  A    between atoms: _475  and  _476
REMARK  184  A    between atoms: _475  and  _478
REMARK  185  A    between atoms: _478  and  _479
REMARK  186  A    between atoms: _484  and  _486
REMARK  187  A    between atoms: _486  and  _487
REMARK  188  A    between atoms: _489  and  _491
REMARK  189  A    between atoms: _491  and  _492
REMARK  190  A    between atoms: _491  and  _494
REMARK  191  A    between atoms: _494  and  _495
REMARK  192  A    between atoms: _495  and  _496
REMARK  193  A    between atoms: _498  and  _500
REMARK  194  A    between atoms: _500  and  _501
REMARK  195  A    between atoms: _503  and  _505
REMARK  196  A    between atoms: _505  and  _506
REMARK  197  A    between atoms: _505  and  _508
REMARK  198  A    between atoms: _508  and  _509
REMARK  199  A    between atoms: _519  and  _521
REMARK  200  A    between atoms: _521  and  _522
REMARK  201  A    between atoms: _525  and  _527
REMARK  202  A    between atoms: _527  and  _528
REMARK  203  A    between atoms: _527  and  _530
REMARK  204  A    between atoms: _530  and  _531
REMARK  205  A    between atoms: _534  and  _536
REMARK  206  A    between atoms: _536  and  _537
REMARK  207  A    between atoms: _536  and  _539
REMARK  208  A    between atoms: _539  and  _540
REMARK  209  A    between atoms: _545  and  _547
REMARK  210  A    between atoms: _547  and  _548
REMARK  211  A    between atoms: _547  and  _550
REMARK  212  A    between atoms: _550  and  _551
REMARK  213  A    between atoms: _557  and  _559
REMARK  214  A    between atoms: _559  and  _560
REMARK  215  A    between atoms: _559  and  _562
REMARK  216  A    between atoms: _562  and  _563
REMARK  217  A    between atoms: _563  and  _564
REMARK  218  A    between atoms: _567  and  _569
REMARK  219  A    between atoms: _569  and  _570
REMARK  220  A    between atoms: _569  and  _572
REMARK  221  A    between atoms: _572  and  _573
REMARK  222  A    between atoms: _583  and  _585
REMARK  223  A    between atoms: _585  and  _586
REMARK  224  A    between atoms: _585  and  _588
REMARK  225  A    between atoms: _588  and  _589
REMARK  226  A    between atoms: _592  and  _594
REMARK  227  A    between atoms: _594  and  _595
REMARK  228  A    between atoms: _594  and  _597
REMARK  229  A    between atoms: _597  and  _598
REMARK  230  A    between atoms: _600  and  _602
REMARK  231  A    between atoms: _602  and  _603
REMARK  232  A    between atoms: _605  and  _607
REMARK  233  A    between atoms: _607  and  _608
REMARK  234  A    between atoms: _607  and  _610
REMARK  235  A    between atoms: _610  and  _611
REMARK  236  A    between atoms: _614  and  _616
REMARK  237  A    between atoms: _616  and  _617
REMARK  238  A    between atoms: _616  and  _619
REMARK  239  A    between atoms: _619  and  _620
REMARK  240  A    between atoms: _620  and  _621
REMARK  241  A    between atoms: _626  and  _628
REMARK  242  A    between atoms: _628  and  _629
REMARK  243  A    between atoms: _628  and  _631
REMARK  244  A    between atoms: _631  and  _632
REMARK                            x       y       z     vdW  Elec       q    Type
REMARK                         _______ _______ _______ _____ _____    ______ ____
ROOT
ATOM      1  O   HOH     1      -6.395  33.395  16.883  0.00  0.00    +0.000 OA
ENDROOT
TORSDOF 0
REMARK  Name = ../refined-set-2016/3wq6/3wq6_pocket.pdb
REMARK  244 active torsions:
REMARK  status: ('A' for Active; 'I' for Inactive)
REMARK    1  A    between atoms: _1  and  _3
REMARK    2  A    between atoms: _3  and  _4
REMARK    3  A    between atoms: _7  and  _9
REMARK    4  A    between atoms: _9  and  _10
REMARK    5  A    between atoms: _9  and  _12
REMARK    6  A    between atoms: _12  and  _13
REMARK    7  A    between atoms: _15  and  _17
REMARK    8  A    between atoms: _17  and  _18
REMARK    9  A    between atoms: _17  and  _20
REMARK   10  A    between atoms: _20  and  _21
REMARK   11  A    between atoms: _23  and  _25
REMARK   12  A    between atoms: _25  and  _26
REMARK   13  A    between atoms: _29  and  _31
REMARK   14  A    between atoms: _31  and  _32
REMARK   15  A    between atoms: _31  and  _34
REMARK   16  A    between atoms: _34  and  _35
REMARK   17  A    between atoms: _40  and  _41
REMARK   18  A    between atoms: _43  and  _45
REMARK   19  A    between atoms: _45  and  _46
REMARK   20  A    between atoms: _45  and  _48
REMARK   21  A    between atoms: _48  and  _49
REMARK   22  A    between atoms: _49  and  _50
REMARK   23  A    between atoms: _55  and  _57
REMARK   24  A    between atoms: _57  and  _58
REMARK   25  A    between atoms: _57  and  _60
REMARK   26  A    between atoms: _60  and  _61
REMARK   27  A    between atoms: _67  and  _69
REMARK   28  A    between atoms: _69  and  _70
REMARK   29  A    between atoms: _69  and  _72
REMARK   30  A    between atoms: _72  and  _73
REMARK   31  A    between atoms: _83  and  _85
REMARK   32  A    between atoms: _85  and  _86
REMARK   33  A    between atoms: _85  and  _88
REMARK   34  A    between atoms: _88  and  _89
REMARK   35  A    between atoms: _91  and  _93
REMARK   36  A    between atoms: _93  and  _94
REMARK   37  A    between atoms: _93  and  _96
REMARK   38  A    between atoms: _96  and  _97
REMARK   39  A    between atoms: _97  and  _98
REMARK   40  A    between atoms: _98  and  _99
REMARK   41  A    between atoms: _108  and  _110
REMARK   42  A    between atoms: _110  and  _111
REMARK   43  A    between atoms: _110  and  _113
REMARK   44  A    between atoms: _113  and  _114
REMARK   45  A    between atoms: _117  and  _119
REMARK   46  A    between atoms: _119  and  _120
REMARK   47  A    between atoms: _119  and  _122
REMARK   48  A    between atoms: _122  and  _123
REMARK   49  A    between atoms: _128  and  _130
REMARK   50  A    between atoms: _130  and  _131
REMARK   51  A    between atoms: _130  and  _133
REMARK   52  A    between atoms: _133  and  _134
REMARK   53  A    between atoms: _144  and  _146
REMARK   54  A    between atoms: _146  and  _147
REMARK   55  A    between atoms: _146  and  _149
REMARK   56  A    between atoms: _149  and  _150
REMARK   57  A    between atoms: _155  and  _157
REMARK   58  A    between atoms: _157  and  _158
REMARK   59  A    between atoms: _157  and  _160
REMARK   60  A    between atoms: _160  and  _161
REMARK   61  A    between atoms: _161  and  _162
REMARK   62  A    between atoms: _165  and  _167
REMARK   63  A    between atoms: _167  and  _168
REMARK   64  A    between atoms: _167  and  _170
REMARK   65  A    between atoms: _170  and  _171
REMARK   66  A    between atoms: _181  and  _183
REMARK   67  A    between atoms: _183  and  _184
REMARK   68  A    between atoms: _183  and  _186
REMARK   69  A    between atoms: _186  and  _187
REMARK   70  A    between atoms: _189  and  _191
REMARK   71  A    between atoms: _191  and  _192
REMARK   72  A    between atoms: _191  and  _194
REMARK   73  A    between atoms: _194  and  _195
REMARK   74  A    between atoms: _200  and  _201
REMARK   75  A    between atoms: _203  and  _205
REMARK   76  A    between atoms: _205  and  _206
REMARK   77  A    between atoms: _205  and  _208
REMARK   78  A    between atoms: _208  and  _209
REMARK   79  A    between atoms: _211  and  _213
REMARK   80  A    between atoms: _213  and  _214
REMARK   81  A    between atoms: _213  and  _216
REMARK   82  A    between atoms: _216  and  _217
REMARK   83  A    between atoms: _222  and  _223
REMARK   84  A    between atoms: _225  and  _227
REMARK   85  A    between atoms: _227  and  _228
REMARK   86  A    between atoms: _230  and  _232
REMARK   87  A    between atoms: _232  and  _233
REMARK   88  A    between atoms: _235  and  _237
REMARK   89  A    between atoms: _237  and  _238
REMARK   90  A    between atoms: _237  and  _240
REMARK   91  A    between atoms: _240  and  _241
REMARK   92  A    between atoms: _246  and  _247
REMARK   93  A    between atoms: _249  and  _251
REMARK   94  A    between atoms: _251  and  _252
REMARK   95  A    between atoms: _251  and  _254
REMARK   96  A    between atoms: _254  and  _255
REMARK   97  A    between atoms: _258  and  _260
REMARK   98  A    between atoms: _260  and  _261
REMARK   99  A    between atoms: _264  and  _266
REMARK  100  A    between atoms: _266  and  _267
REMARK  101  A    between atoms: _269  and  _271
REMARK  102  A    between atoms: _271  and  _272
REMARK  103  A    between atoms: _271  and  _274
REMARK  104  A    between atoms: _274  and  _275
REMARK  105  A    between atoms: _278  and  _280
REMARK  106  A    between atoms: _280  and  _281
REMARK  107  A    between atoms: _280  and  _283
REMARK  108  A    between atoms: _283  and  _284
REMARK  109  A    between atoms: _287  and  _289
REMARK  110  A    between atoms: _289  and  _290
REMARK  111  A    between atoms: _289  and  _292
REMARK  112  A    between atoms: _292  and  _293
REMARK  113  A    between atoms: _296  and  _298
REMARK  114  A    between atoms: _298  and  _299
REMARK  115  A    between atoms: _298  and  _301
REMARK  116  A    between atoms: _304  and  _306
REMARK  117  A    between atoms: _306  and  _307
REMARK  118  A    between atoms: _306  and  _309
REMARK  119  A    between atoms: _309  and  _310
REMARK  120  A    between atoms: _313  and  _315
REMARK  121  A    between atoms: _315  and  _316
REMARK  122  A    between atoms: _315  and  _318
REMARK  123  A    between atoms: _318  and  _319
REMARK  124  A    between atoms: _324  and  _325
REMARK  125  A    between atoms: _327  and  _329
REMARK  126  A    between atoms: _329  and  _330
REMARK  127  A    between atoms: _329  and  _332
REMARK  128  A    between atoms: _332  and  _333
REMARK  129  A    between atoms: _333  and  _334
REMARK  130  A    between atoms: _336  and  _338
REMARK  131  A    between atoms: _338  and  _339
REMARK  132  A    between atoms: _338  and  _341
REMARK  133  A    between atoms: _341  and  _342
REMARK  134  A    between atoms: _347  and  _349
REMARK  135  A    between atoms: _349  and  _350
REMARK  136  A    between atoms: _349  and  _352
REMARK  137  A    between atoms: _352  and  _353
REMARK  138  A    between atoms: _358  and  _359
REMARK  139  A    between atoms: _361  and  _363
REMARK  140  A    between atoms: _363  and  _364
REMARK  141  A    between atoms: _363  and  _366
REMARK  142  A    between atoms: _366  and  _367
REMARK  143  A    between atoms: _372  and  _373
REMARK  144  A    between atoms: _375  and  _377
REMARK  145  A    between atoms: _377  and  _378
REMARK  146  A    between atoms: _377  and  _380
REMARK  147  A    between atoms: _380  and  _381
REMARK  148  A    between atoms: _384  and  _386
REMARK  149  A    between atoms: _386  and  _387
REMARK  150  A    between atoms: _386  and  _389
REMARK  151  A    between atoms: _389  and  _390
REMARK  152  A    between atoms: _395  and  _397
REMARK  153  A    between atoms: _397  and  _398
REMARK  154  A    between atoms: _397  and  _400
REMARK  155  A    between atoms: _400  and  _401
REMARK  156  A    between atoms: _401  and  _402
REMARK  157  A    between atoms: _407  and  _409
REMARK  158  A    between atoms: _409  and  _410
REMARK  159  A    between atoms: _409  and  _412
REMARK  160  A    between atoms: _412  and  _413
REMARK  161  A    between atoms: _416  and  _418
REMARK  162  A    between atoms: _418  and  _419
REMARK  163  A    between atoms: _421  and  _423
REMARK  164  A    between atoms: _423  and  _424
REMARK  165  A    between atoms: _423  and  _426
REMARK  166  A    between atoms: _430  and  _431
REMARK  167  A    between atoms: _436  and  _438
REMARK  168  A    between atoms: _438  and  _439
REMARK  169  A    between atoms: _442  and  _444
REMARK  170  A    between atoms: _444  and  _445
REMARK  171  A    between atoms: _444  and  _447
REMARK  172  A    between atoms: _447  and  _448
REMARK  173  A    between atoms: _454  and  _456
REMARK  174  A    between atoms: _456  and  _457
REMARK  175  A    between atoms: _456  and  _459
REMARK  176  A    between atoms: _459  and  _460
REMARK  177  A    between atoms: _463  and  _465
REMARK  178  A    between atoms: _465  and  _466
REMARK  179  A    between atoms: _465  and  _468
REMARK  180  A    between atoms: _468  and  _469
REMARK  181  A    between atoms: _469  and  _470
REMARK  182  A    between atoms: _473  and  _475
REMARK  183  A    between atoms: _475  and  _476
REMARK  184  A    between atoms: _475  and  _478
REMARK  185  A    between atoms: _478  and  _479
REMARK  186  A    between atoms: _484  and  _486
REMARK  187  A    between atoms: _486  and  _487
REMARK  188  A    between atoms: _489  and  _491
REMARK  189  A    between atoms: _491  and  _492
REMARK  190  A    between atoms: _491  and  _494
REMARK  191  A    between atoms: _494  and  _495
REMARK  192  A    between atoms: _495  and  _496
REMARK  193  A    between atoms: _498  and  _500
REMARK  194  A    between atoms: _500  and  _501
REMARK  195  A    between atoms: _503  and  _505
REMARK  196  A    between atoms: _505  and  _506
REMARK  197  A    between atoms: _505  and  _508
REMARK  198  A    between atoms: _508  and  _509
REMARK  199  A    between atoms: _519  and  _521
REMARK  200  A    between atoms: _521  and  _522
REMARK  201  A    between atoms: _525  and  _527
REMARK  202  A    between atoms: _527  and  _528
REMARK  203  A    between atoms: _527  and  _530
REMARK  204  A    between atoms: _530  and  _531
REMARK  205  A    between atoms: _534  and  _536
REMARK  206  A    between atoms: _536  and  _537
REMARK  207  A    between atoms: _536  and  _539
REMARK  208  A    between atoms: _539  and  _540
REMARK  209  A    between atoms: _545  and  _547
REMARK  210  A    between atoms: _547  and  _548
REMARK  211  A    between atoms: _547  and  _550
REMARK  212  A    between atoms: _550  and  _551
REMARK  213  A    between atoms: _557  and  _559
REMARK  214  A    between atoms: _559  and  _560
REMARK  215  A    between atoms: _559  and  _562
REMARK  216  A    between atoms: _562  and  _563
REMARK  217  A    between atoms: _563  and  _564
REMARK  218  A    between atoms: _567  and  _569
REMARK  219  A    between atoms: _569  and  _570
REMARK  220  A    between atoms: _569  and  _572
REMARK  221  A    between atoms: _572  and  _573
REMARK  222  A    between atoms: _583  and  _585
REMARK  223  A    between atoms: _585  and  _586
REMARK  224  A    between atoms: _585  and  _588
REMARK  225  A    between atoms: _588  and  _589
REMARK  226  A    between atoms: _592  and  _594
REMARK  227  A    between atoms: _594  and  _595
REMARK  228  A    between atoms: _594  and  _597
REMARK  229  A    between atoms: _597  and  _598
REMARK  230  A    between atoms: _600  and  _602
REMARK  231  A    between atoms: _602  and  _603
REMARK  232  A    between atoms: _605  and  _607
REMARK  233  A    between atoms: _607  and  _608
REMARK  234  A    between atoms: _607  and  _610
REMARK  235  A    between atoms: _610  and  _611
REMARK  236  A    between atoms: _614  and  _616
REMARK  237  A    between atoms: _616  and  _617
REMARK  238  A    between atoms: _616  and  _619
REMARK  239  A    between atoms: _619  and  _620
REMARK  240  A    between atoms: _620  and  _621
REMARK  241  A    between atoms: _626  and  _628
REMARK  242  A    between atoms: _628  and  _629
REMARK  243  A    between atoms: _628  and  _631
REMARK  244  A    between atoms: _631  and  _632
REMARK                            x       y       z     vdW  Elec       q    Type
REMARK                         _______ _______ _______ _____ _____    ______ ____
ROOT
ATOM      1  O   HOH     1      -6.925  31.983  15.394  0.00  0.00    +0.000 OA
ENDROOT
TORSDOF 0
