REMARK  Name = ../refined-set-2016/2nmz/2nmz_pocket.pdb
REMARK  224 active torsions:
REMARK  status: ('A' for Active; 'I' for Inactive)
REMARK    1  A    between atoms: _1  and  _3
REMARK    2  A    between atoms: _3  and  _4
REMARK    3  A    between atoms: _3  and  _6
REMARK    4  A    between atoms: _6  and  _7
REMARK    5  A    between atoms: _7  and  _8
REMARK    6  A    between atoms: _8  and  _9
REMARK    7  A    between atoms: _18  and  _20
REMARK    8  A    between atoms: _20  and  _21
REMARK    9  A    between atoms: _20  and  _23
REMARK   10  A    between atoms: _23  and  _24
REMARK   11  A    between atoms: _27  and  _29
REMARK   12  A    between atoms: _29  and  _30
REMARK   13  A    between atoms: _29  and  _32
REMARK   14  A    between atoms: _32  and  _33
REMARK   15  A    between atoms: _36  and  _38
REMARK   16  A    between atoms: _38  and  _39
REMARK   17  A    between atoms: _38  and  _41
REMARK   18  A    between atoms: _41  and  _42
REMARK   19  A    between atoms: _45  and  _47
REMARK   20  A    between atoms: _47  and  _48
REMARK   21  A    between atoms: _47  and  _50
REMARK   22  A    between atoms: _50  and  _51
REMARK   23  A    between atoms: _54  and  _56
REMARK   24  A    between atoms: _56  and  _57
REMARK   25  A    between atoms: _59  and  _61
REMARK   26  A    between atoms: _61  and  _62
REMARK   27  A    between atoms: _65  and  _67
REMARK   28  A    between atoms: _67  and  _68
REMARK   29  A    between atoms: _67  and  _70
REMARK   30  A    between atoms: _70  and  _71
REMARK   31  A    between atoms: _74  and  _76
REMARK   32  A    between atoms: _76  and  _77
REMARK   33  A    between atoms: _76  and  _79
REMARK   34  A    between atoms: _79  and  _80
REMARK   35  A    between atoms: _83  and  _85
REMARK   36  A    between atoms: _85  and  _86
REMARK   37  A    between atoms: _85  and  _88
REMARK   38  A    between atoms: _88  and  _89
REMARK   39  A    between atoms: _92  and  _94
REMARK   40  A    between atoms: _94  and  _95
REMARK   41  A    between atoms: _94  and  _97
REMARK   42  A    between atoms: _100  and  _102
REMARK   43  A    between atoms: _102  and  _103
REMARK   44  A    between atoms: _102  and  _105
REMARK   45  A    between atoms: _105  and  _106
REMARK   46  A    between atoms: _106  and  _107
REMARK   47  A    between atoms: _107  and  _108
REMARK   48  A    between atoms: _108  and  _109
REMARK   49  A    between atoms: _113  and  _115
REMARK   50  A    between atoms: _115  and  _116
REMARK   51  A    between atoms: _115  and  _118
REMARK   52  A    between atoms: _118  and  _119
REMARK   53  A    between atoms: _119  and  _120
REMARK   54  A    between atoms: _122  and  _124
REMARK   55  A    between atoms: _124  and  _125
REMARK   56  A    between atoms: _124  and  _127
REMARK   57  A    between atoms: _127  and  _128
REMARK   58  A    between atoms: _131  and  _133
REMARK   59  A    between atoms: _133  and  _134
REMARK   60  A    between atoms: _136  and  _138
REMARK   61  A    between atoms: _138  and  _139
REMARK   62  A    between atoms: _141  and  _143
REMARK   63  A    between atoms: _143  and  _144
REMARK   64  A    between atoms: _143  and  _146
REMARK   65  A    between atoms: _146  and  _147
REMARK   66  A    between atoms: _150  and  _152
REMARK   67  A    between atoms: _152  and  _153
REMARK   68  A    between atoms: _155  and  _157
REMARK   69  A    between atoms: _157  and  _158
REMARK   70  A    between atoms: _160  and  _162
REMARK   71  A    between atoms: _162  and  _163
REMARK   72  A    between atoms: _162  and  _165
REMARK   73  A    between atoms: _165  and  _166
REMARK   74  A    between atoms: _172  and  _174
REMARK   75  A    between atoms: _174  and  _175
REMARK   76  A    between atoms: _174  and  _177
REMARK   77  A    between atoms: _177  and  _178
REMARK   78  A    between atoms: _181  and  _183
REMARK   79  A    between atoms: _183  and  _184
REMARK   80  A    between atoms: _183  and  _186
REMARK   81  A    between atoms: _189  and  _191
REMARK   82  A    between atoms: _191  and  _192
REMARK   83  A    between atoms: _191  and  _194
REMARK   84  A    between atoms: _194  and  _195
REMARK   85  A    between atoms: _199  and  _200
REMARK   86  A    between atoms: _205  and  _207
REMARK   87  A    between atoms: _207  and  _208
REMARK   88  A    between atoms: _207  and  _210
REMARK   89  A    between atoms: _210  and  _211
REMARK   90  A    between atoms: _215  and  _216
REMARK   91  A    between atoms: _221  and  _223
REMARK   92  A    between atoms: _223  and  _224
REMARK   93  A    between atoms: _227  and  _229
REMARK   94  A    between atoms: _229  and  _230
REMARK   95  A    between atoms: _229  and  _232
REMARK   96  A    between atoms: _232  and  _233
REMARK   97  A    between atoms: _238  and  _240
REMARK   98  A    between atoms: _240  and  _241
REMARK   99  A    between atoms: _240  and  _243
REMARK  100  A    between atoms: _243  and  _244
REMARK  101  A    between atoms: _247  and  _249
REMARK  102  A    between atoms: _249  and  _250
REMARK  103  A    between atoms: _249  and  _252
REMARK  104  A    between atoms: _252  and  _253
REMARK  105  A    between atoms: _256  and  _258
REMARK  106  A    between atoms: _258  and  _259
REMARK  107  A    between atoms: _261  and  _263
REMARK  108  A    between atoms: _263  and  _264
REMARK  109  A    between atoms: _263  and  _266
REMARK  110  A    between atoms: _266  and  _267
REMARK  111  A    between atoms: _267  and  _268
REMARK  112  A    between atoms: _268  and  _269
REMARK  113  A    between atoms: _278  and  _280
REMARK  114  A    between atoms: _280  and  _281
REMARK  115  A    between atoms: _280  and  _283
REMARK  116  A    between atoms: _283  and  _284
REMARK  117  A    between atoms: _289  and  _291
REMARK  118  A    between atoms: _291  and  _292
REMARK  119  A    between atoms: _291  and  _294
REMARK  120  A    between atoms: _294  and  _295
REMARK  121  A    between atoms: _295  and  _296
REMARK  122  A    between atoms: _296  and  _297
REMARK  123  A    between atoms: _306  and  _308
REMARK  124  A    between atoms: _308  and  _309
REMARK  125  A    between atoms: _308  and  _311
REMARK  126  A    between atoms: _311  and  _312
REMARK  127  A    between atoms: _315  and  _317
REMARK  128  A    between atoms: _317  and  _318
REMARK  129  A    between atoms: _317  and  _320
REMARK  130  A    between atoms: _320  and  _321
REMARK  131  A    between atoms: _324  and  _326
REMARK  132  A    between atoms: _326  and  _327
REMARK  133  A    between atoms: _326  and  _329
REMARK  134  A    between atoms: _329  and  _330
REMARK  135  A    between atoms: _333  and  _335
REMARK  136  A    between atoms: _335  and  _336
REMARK  137  A    between atoms: _335  and  _338
REMARK  138  A    between atoms: _338  and  _339
REMARK  139  A    between atoms: _342  and  _344
REMARK  140  A    between atoms: _344  and  _345
REMARK  141  A    between atoms: _347  and  _349
REMARK  142  A    between atoms: _349  and  _350
REMARK  143  A    between atoms: _353  and  _355
REMARK  144  A    between atoms: _355  and  _356
REMARK  145  A    between atoms: _355  and  _358
REMARK  146  A    between atoms: _358  and  _359
REMARK  147  A    between atoms: _362  and  _364
REMARK  148  A    between atoms: _364  and  _365
REMARK  149  A    between atoms: _364  and  _367
REMARK  150  A    between atoms: _367  and  _368
REMARK  151  A    between atoms: _371  and  _373
REMARK  152  A    between atoms: _373  and  _374
REMARK  153  A    between atoms: _373  and  _376
REMARK  154  A    between atoms: _376  and  _377
REMARK  155  A    between atoms: _380  and  _382
REMARK  156  A    between atoms: _382  and  _383
REMARK  157  A    between atoms: _382  and  _385
REMARK  158  A    between atoms: _388  and  _390
REMARK  159  A    between atoms: _390  and  _391
REMARK  160  A    between atoms: _390  and  _393
REMARK  161  A    between atoms: _393  and  _394
REMARK  162  A    between atoms: _394  and  _395
REMARK  163  A    between atoms: _397  and  _399
REMARK  164  A    between atoms: _399  and  _400
REMARK  165  A    between atoms: _399  and  _402
REMARK  166  A    between atoms: _402  and  _403
REMARK  167  A    between atoms: _406  and  _408
REMARK  168  A    between atoms: _408  and  _409
REMARK  169  A    between atoms: _411  and  _413
REMARK  170  A    between atoms: _413  and  _414
REMARK  171  A    between atoms: _416  and  _418
REMARK  172  A    between atoms: _418  and  _419
REMARK  173  A    between atoms: _418  and  _421
REMARK  174  A    between atoms: _421  and  _422
REMARK  175  A    between atoms: _425  and  _427
REMARK  176  A    between atoms: _427  and  _428
REMARK  177  A    between atoms: _430  and  _432
REMARK  178  A    between atoms: _432  and  _433
REMARK  179  A    between atoms: _435  and  _437
REMARK  180  A    between atoms: _437  and  _438
REMARK  181  A    between atoms: _437  and  _440
REMARK  182  A    between atoms: _440  and  _441
REMARK  183  A    between atoms: _447  and  _449
REMARK  184  A    between atoms: _449  and  _450
REMARK  185  A    between atoms: _449  and  _452
REMARK  186  A    between atoms: _452  and  _453
REMARK  187  A    between atoms: _456  and  _458
REMARK  188  A    between atoms: _458  and  _459
REMARK  189  A    between atoms: _458  and  _461
REMARK  190  A    between atoms: _464  and  _466
REMARK  191  A    between atoms: _466  and  _467
REMARK  192  A    between atoms: _466  and  _469
REMARK  193  A    between atoms: _469  and  _470
REMARK  194  A    between atoms: _473  and  _475
REMARK  195  A    between atoms: _475  and  _476
REMARK  196  A    between atoms: _475  and  _478
REMARK  197  A    between atoms: _478  and  _479
REMARK  198  A    between atoms: _483  and  _484
REMARK  199  A    between atoms: _489  and  _491
REMARK  200  A    between atoms: _491  and  _492
REMARK  201  A    between atoms: _495  and  _497
REMARK  202  A    between atoms: _497  and  _498
REMARK  203  A    between atoms: _497  and  _500
REMARK  204  A    between atoms: _500  and  _501
REMARK  205  A    between atoms: _506  and  _508
REMARK  206  A    between atoms: _508  and  _509
REMARK  207  A    between atoms: _508  and  _511
REMARK  208  A    between atoms: _511  and  _512
REMARK  209  A    between atoms: _515  and  _517
REMARK  210  A    between atoms: _517  and  _518
REMARK  211  A    between atoms: _517  and  _520
REMARK  212  A    between atoms: _520  and  _521
REMARK  213  A    between atoms: _524  and  _526
REMARK  214  A    between atoms: _526  and  _527
REMARK  215  A    between atoms: _529  and  _531
REMARK  216  A    between atoms: _531  and  _532
REMARK  217  A    between atoms: _531  and  _534
REMARK  218  A    between atoms: _534  and  _535
REMARK  219  A    between atoms: _535  and  _536
REMARK  220  A    between atoms: _536  and  _537
REMARK  221  A    between atoms: _546  and  _548
REMARK  222  A    between atoms: _548  and  _549
REMARK  223  A    between atoms: _548  and  _551
REMARK  224  A    between atoms: _551  and  _552
REMARK                            x       y       z     vdW  Elec       q    Type
REMARK                         _______ _______ _______ _____ _____    ______ ____
ROOT
ATOM      1  NE  ARG A   1      19.029  20.501  11.239  0.00  0.00    -0.265 N 
ATOM      2  HE  ARG A   1      19.992  20.750  11.543  0.00  0.00    +0.259 HD
ATOM      3  CZ  ARG A   1      18.696  20.619   9.945  0.00  0.00    +0.342 C 
ATOM      4  NH2 ARG A   1      17.502  20.301   9.491  0.00  0.00    -0.292 N 
ATOM      5 HH21 ARG A   1      16.776  19.943  10.144  0.00  0.00    +0.255 HD
ATOM      6 HH22 ARG A   1      17.285  20.408   8.480  0.00  0.00    +0.255 HD
ATOM      7  NH1 ARG A   1      19.648  21.059   9.161  0.00  0.00    -0.292 N 
ATOM      8 HH11 ARG A   1      20.582  21.289   9.556  0.00  0.00    +0.255 HD
ATOM      9 HH12 ARG A   1      19.470  21.179   8.143  0.00  0.00    +0.255 HD
ENDROOT
BRANCH   1  10
ATOM     10  CD  ARG A   1      18.048  20.022  12.247  0.00  0.00    +0.174 C 
BRANCH  10  11
ATOM     11  CG  ARG A   1      18.788  19.556  13.464  0.00  0.00    +0.045 C 
BRANCH  11  12
ATOM     12  CB  ARG A   1      17.836  18.978  14.496  0.00  0.00    +0.029 C 
BRANCH  12  13
ATOM     13  CA  ARG A   1      18.552  18.361  15.700  0.00  0.00    +0.133 C 
BRANCH  13  14
ATOM     14  N   ARG A   1      19.258  17.141  15.271  0.00  0.00    -0.239 NA
ATOM     15  H   ARG A   1      19.246  16.841  14.275  0.00  0.00    +0.142 HD
ENDBRANCH  13  14
BRANCH  13  16
ATOM     16  C   ARG A   1      17.561  18.033  16.779  0.00  0.00    +0.224 C 
ATOM     17  O   ARG A   1      16.810  17.030  16.676  0.00  0.00    -0.287 OA
ENDBRANCH  13  16
ENDBRANCH  12  13
ENDBRANCH  11  12
ENDBRANCH  10  11
ENDBRANCH   1  10
TORSDOF 6
REMARK  Name = ../refined-set-2016/2nmz/2nmz_pocket.pdb
REMARK  224 active torsions:
REMARK  status: ('A' for Active; 'I' for Inactive)
REMARK    1  A    between atoms: _1  and  _3
REMARK    2  A    between atoms: _3  and  _4
REMARK    3  A    between atoms: _3  and  _6
REMARK    4  A    between atoms: _6  and  _7
REMARK    5  A    between atoms: _7  and  _8
REMARK    6  A    between atoms: _8  and  _9
REMARK    7  A    between atoms: _18  and  _20
REMARK    8  A    between atoms: _20  and  _21
REMARK    9  A    between atoms: _20  and  _23
REMARK   10  A    between atoms: _23  and  _24
REMARK   11  A    between atoms: _27  and  _29
REMARK   12  A    between atoms: _29  and  _30
REMARK   13  A    between atoms: _29  and  _32
REMARK   14  A    between atoms: _32  and  _33
REMARK   15  A    between atoms: _36  and  _38
REMARK   16  A    between atoms: _38  and  _39
REMARK   17  A    between atoms: _38  and  _41
REMARK   18  A    between atoms: _41  and  _42
REMARK   19  A    between atoms: _45  and  _47
REMARK   20  A    between atoms: _47  and  _48
REMARK   21  A    between atoms: _47  and  _50
REMARK   22  A    between atoms: _50  and  _51
REMARK   23  A    between atoms: _54  and  _56
REMARK   24  A    between atoms: _56  and  _57
REMARK   25  A    between atoms: _59  and  _61
REMARK   26  A    between atoms: _61  and  _62
REMARK   27  A    between atoms: _65  and  _67
REMARK   28  A    between atoms: _67  and  _68
REMARK   29  A    between atoms: _67  and  _70
REMARK   30  A    between atoms: _70  and  _71
REMARK   31  A    between atoms: _74  and  _76
REMARK   32  A    between atoms: _76  and  _77
REMARK   33  A    between atoms: _76  and  _79
REMARK   34  A    between atoms: _79  and  _80
REMARK   35  A    between atoms: _83  and  _85
REMARK   36  A    between atoms: _85  and  _86
REMARK   37  A    between atoms: _85  and  _88
REMARK   38  A    between atoms: _88  and  _89
REMARK   39  A    between atoms: _92  and  _94
REMARK   40  A    between atoms: _94  and  _95
REMARK   41  A    between atoms: _94  and  _97
REMARK   42  A    between atoms: _100  and  _102
REMARK   43  A    between atoms: _102  and  _103
REMARK   44  A    between atoms: _102  and  _105
REMARK   45  A    between atoms: _105  and  _106
REMARK   46  A    between atoms: _106  and  _107
REMARK   47  A    between atoms: _107  and  _108
REMARK   48  A    between atoms: _108  and  _109
REMARK   49  A    between atoms: _113  and  _115
REMARK   50  A    between atoms: _115  and  _116
REMARK   51  A    between atoms: _115  and  _118
REMARK   52  A    between atoms: _118  and  _119
REMARK   53  A    between atoms: _119  and  _120
REMARK   54  A    between atoms: _122  and  _124
REMARK   55  A    between atoms: _124  and  _125
REMARK   56  A    between atoms: _124  and  _127
REMARK   57  A    between atoms: _127  and  _128
REMARK   58  A    between atoms: _131  and  _133
REMARK   59  A    between atoms: _133  and  _134
REMARK   60  A    between atoms: _136  and  _138
REMARK   61  A    between atoms: _138  and  _139
REMARK   62  A    between atoms: _141  and  _143
REMARK   63  A    between atoms: _143  and  _144
REMARK   64  A    between atoms: _143  and  _146
REMARK   65  A    between atoms: _146  and  _147
REMARK   66  A    between atoms: _150  and  _152
REMARK   67  A    between atoms: _152  and  _153
REMARK   68  A    between atoms: _155  and  _157
REMARK   69  A    between atoms: _157  and  _158
REMARK   70  A    between atoms: _160  and  _162
REMARK   71  A    between atoms: _162  and  _163
REMARK   72  A    between atoms: _162  and  _165
REMARK   73  A    between atoms: _165  and  _166
REMARK   74  A    between atoms: _172  and  _174
REMARK   75  A    between atoms: _174  and  _175
REMARK   76  A    between atoms: _174  and  _177
REMARK   77  A    between atoms: _177  and  _178
REMARK   78  A    between atoms: _181  and  _183
REMARK   79  A    between atoms: _183  and  _184
REMARK   80  A    between atoms: _183  and  _186
REMARK   81  A    between atoms: _189  and  _191
REMARK   82  A    between atoms: _191  and  _192
REMARK   83  A    between atoms: _191  and  _194
REMARK   84  A    between atoms: _194  and  _195
REMARK   85  A    between atoms: _199  and  _200
REMARK   86  A    between atoms: _205  and  _207
REMARK   87  A    between atoms: _207  and  _208
REMARK   88  A    between atoms: _207  and  _210
REMARK   89  A    between atoms: _210  and  _211
REMARK   90  A    between atoms: _215  and  _216
REMARK   91  A    between atoms: _221  and  _223
REMARK   92  A    between atoms: _223  and  _224
REMARK   93  A    between atoms: _227  and  _229
REMARK   94  A    between atoms: _229  and  _230
REMARK   95  A    between atoms: _229  and  _232
REMARK   96  A    between atoms: _232  and  _233
REMARK   97  A    between atoms: _238  and  _240
REMARK   98  A    between atoms: _240  and  _241
REMARK   99  A    between atoms: _240  and  _243
REMARK  100  A    between atoms: _243  and  _244
REMARK  101  A    between atoms: _247  and  _249
REMARK  102  A    between atoms: _249  and  _250
REMARK  103  A    between atoms: _249  and  _252
REMARK  104  A    between atoms: _252  and  _253
REMARK  105  A    between atoms: _256  and  _258
REMARK  106  A    between atoms: _258  and  _259
REMARK  107  A    between atoms: _261  and  _263
REMARK  108  A    between atoms: _263  and  _264
REMARK  109  A    between atoms: _263  and  _266
REMARK  110  A    between atoms: _266  and  _267
REMARK  111  A    between atoms: _267  and  _268
REMARK  112  A    between atoms: _268  and  _269
REMARK  113  A    between atoms: _278  and  _280
REMARK  114  A    between atoms: _280  and  _281
REMARK  115  A    between atoms: _280  and  _283
REMARK  116  A    between atoms: _283  and  _284
REMARK  117  A    between atoms: _289  and  _291
REMARK  118  A    between atoms: _291  and  _292
REMARK  119  A    between atoms: _291  and  _294
REMARK  120  A    between atoms: _294  and  _295
REMARK  121  A    between atoms: _295  and  _296
REMARK  122  A    between atoms: _296  and  _297
REMARK  123  A    between atoms: _306  and  _308
REMARK  124  A    between atoms: _308  and  _309
REMARK  125  A    between atoms: _308  and  _311
REMARK  126  A    between atoms: _311  and  _312
REMARK  127  A    between atoms: _315  and  _317
REMARK  128  A    between atoms: _317  and  _318
REMARK  129  A    between atoms: _317  and  _320
REMARK  130  A    between atoms: _320  and  _321
REMARK  131  A    between atoms: _324  and  _326
REMARK  132  A    between atoms: _326  and  _327
REMARK  133  A    between atoms: _326  and  _329
REMARK  134  A    between atoms: _329  and  _330
REMARK  135  A    between atoms: _333  and  _335
REMARK  136  A    between atoms: _335  and  _336
REMARK  137  A    between atoms: _335  and  _338
REMARK  138  A    between atoms: _338  and  _339
REMARK  139  A    between atoms: _342  and  _344
REMARK  140  A    between atoms: _344  and  _345
REMARK  141  A    between atoms: _347  and  _349
REMARK  142  A    between atoms: _349  and  _350
REMARK  143  A    between atoms: _353  and  _355
REMARK  144  A    between atoms: _355  and  _356
REMARK  145  A    between atoms: _355  and  _358
REMARK  146  A    between atoms: _358  and  _359
REMARK  147  A    between atoms: _362  and  _364
REMARK  148  A    between atoms: _364  and  _365
REMARK  149  A    between atoms: _364  and  _367
REMARK  150  A    between atoms: _367  and  _368
REMARK  151  A    between atoms: _371  and  _373
REMARK  152  A    between atoms: _373  and  _374
REMARK  153  A    between atoms: _373  and  _376
REMARK  154  A    between atoms: _376  and  _377
REMARK  155  A    between atoms: _380  and  _382
REMARK  156  A    between atoms: _382  and  _383
REMARK  157  A    between atoms: _382  and  _385
REMARK  158  A    between atoms: _388  and  _390
REMARK  159  A    between atoms: _390  and  _391
REMARK  160  A    between atoms: _390  and  _393
REMARK  161  A    between atoms: _393  and  _394
REMARK  162  A    between atoms: _394  and  _395
REMARK  163  A    between atoms: _397  and  _399
REMARK  164  A    between atoms: _399  and  _400
REMARK  165  A    between atoms: _399  and  _402
REMARK  166  A    between atoms: _402  and  _403
REMARK  167  A    between atoms: _406  and  _408
REMARK  168  A    between atoms: _408  and  _409
REMARK  169  A    between atoms: _411  and  _413
REMARK  170  A    between atoms: _413  and  _414
REMARK  171  A    between atoms: _416  and  _418
REMARK  172  A    between atoms: _418  and  _419
REMARK  173  A    between atoms: _418  and  _421
REMARK  174  A    between atoms: _421  and  _422
REMARK  175  A    between atoms: _425  and  _427
REMARK  176  A    between atoms: _427  and  _428
REMARK  177  A    between atoms: _430  and  _432
REMARK  178  A    between atoms: _432  and  _433
REMARK  179  A    between atoms: _435  and  _437
REMARK  180  A    between atoms: _437  and  _438
REMARK  181  A    between atoms: _437  and  _440
REMARK  182  A    between atoms: _440  and  _441
REMARK  183  A    between atoms: _447  and  _449
REMARK  184  A    between atoms: _449  and  _450
REMARK  185  A    between atoms: _449  and  _452
REMARK  186  A    between atoms: _452  and  _453
REMARK  187  A    between atoms: _456  and  _458
REMARK  188  A    between atoms: _458  and  _459
REMARK  189  A    between atoms: _458  and  _461
REMARK  190  A    between atoms: _464  and  _466
REMARK  191  A    between atoms: _466  and  _467
REMARK  192  A    between atoms: _466  and  _469
REMARK  193  A    between atoms: _469  and  _470
REMARK  194  A    between atoms: _473  and  _475
REMARK  195  A    between atoms: _475  and  _476
REMARK  196  A    between atoms: _475  and  _478
REMARK  197  A    between atoms: _478  and  _479
REMARK  198  A    between atoms: _483  and  _484
REMARK  199  A    between atoms: _489  and  _491
REMARK  200  A    between atoms: _491  and  _492
REMARK  201  A    between atoms: _495  and  _497
REMARK  202  A    between atoms: _497  and  _498
REMARK  203  A    between atoms: _497  and  _500
REMARK  204  A    between atoms: _500  and  _501
REMARK  205  A    between atoms: _506  and  _508
REMARK  206  A    between atoms: _508  and  _509
REMARK  207  A    between atoms: _508  and  _511
REMARK  208  A    between atoms: _511  and  _512
REMARK  209  A    between atoms: _515  and  _517
REMARK  210  A    between atoms: _517  and  _518
REMARK  211  A    between atoms: _517  and  _520
REMARK  212  A    between atoms: _520  and  _521
REMARK  213  A    between atoms: _524  and  _526
REMARK  214  A    between atoms: _526  and  _527
REMARK  215  A    between atoms: _529  and  _531
REMARK  216  A    between atoms: _531  and  _532
REMARK  217  A    between atoms: _531  and  _534
REMARK  218  A    between atoms: _534  and  _535
REMARK  219  A    between atoms: _535  and  _536
REMARK  220  A    between atoms: _536  and  _537
REMARK  221  A    between atoms: _546  and  _548
REMARK  222  A    between atoms: _548  and  _549
REMARK  223  A    between atoms: _548  and  _551
REMARK  224  A    between atoms: _551  and  _552
REMARK                            x       y       z     vdW  Elec       q    Type
REMARK                         _______ _______ _______ _____ _____    ______ ____
ROOT
ATOM      1  C   GLY A   5      20.069  31.168  20.432  0.00  0.00    +0.243 C 
ATOM      2  N   ALA A   6      18.789  30.930  20.551  0.00  0.00    -0.297 N 
ATOM      3  H   ALA A   6      18.485  30.031  20.977  0.00  0.00    +0.150 HD
ATOM      4  O   GLY A   5      20.503  32.204  19.921  0.00  0.00    -0.273 OA
ENDROOT
BRANCH   2   5
ATOM      5  CA  ALA A   6      17.776  31.873  20.111  0.00  0.00    +0.149 C 
ATOM      6  CB  ALA A   6      16.654  31.114  19.387  0.00  0.00    +0.031 C 
BRANCH   5   7
ATOM      7  C   ALA A   6      17.204  32.621  21.307  0.00  0.00    +0.241 C 
ATOM      8  O   ALA A   6      16.746  31.992  22.279  0.00  0.00    -0.273 OA
ATOM      9  N   ASP A   7      17.207  33.932  21.240  0.00  0.00    -0.297 N 
ATOM     10  H   ASP A   7      17.654  34.407  20.430  0.00  0.00    +0.150 HD
BRANCH   9  11
ATOM     11  CA  ASP A   7      16.591  34.722  22.288  0.00  0.00    +0.160 C 
BRANCH  11  12
ATOM     12  C   ASP A   7      15.062  34.563  22.287  0.00  0.00    +0.241 C 
ATOM     13  O   ASP A   7      14.413  34.612  23.333  0.00  0.00    -0.273 OA
ATOM     14  N   ASP A   8      14.519  34.430  21.095  0.00  0.00    -0.297 N 
ATOM     15  H   ASP A   8      15.170  34.271  20.300  0.00  0.00    +0.150 HD
BRANCH  14  16
ATOM     16  CA  ASP A   8      13.098  34.483  20.778  0.00  0.00    +0.160 C 
BRANCH  16  17
ATOM     17  C   ASP A   8      12.596  33.174  20.221  0.00  0.00    +0.241 C 
ATOM     18  N   THR A   9      11.291  33.021  20.250  0.00  0.00    -0.295 N 
ATOM     19  H   THR A   9      10.721  33.756  20.715  0.00  0.00    +0.150 HD
ATOM     20  O   ASP A   8      13.379  32.360  19.755  0.00  0.00    -0.273 OA
BRANCH  18  21
ATOM     21  CA  THR A   9      10.594  31.872  19.663  0.00  0.00    +0.176 C 
BRANCH  21  22
ATOM     22  C   THR A   9       9.988  32.338  18.337  0.00  0.00    +0.243 C 
ATOM     23  O   THR A   9       9.246  33.326  18.307  0.00  0.00    -0.273 OA
ATOM     24  N   VAL A  10      10.317  31.617  17.255  0.00  0.00    -0.298 N 
ATOM     25  H   VAL A  10      10.873  30.748  17.388  0.00  0.00    +0.150 HD
BRANCH  24  26
ATOM     26  CA  VAL A  10       9.935  31.991  15.912  0.00  0.00    +0.137 C 
BRANCH  26  27
ATOM     27  CB  VAL A  10      11.150  32.481  15.083  0.00  0.00    +0.026 C 
ATOM     28  CG2 VAL A  10      12.013  33.416  15.903  0.00  0.00    +0.002 C 
ATOM     29  CG1 VAL A  10      10.611  33.163  13.820  0.00  0.00    +0.002 C 
ENDBRANCH  26  27
BRANCH  26  30
ATOM     30  C   VAL A  10       9.239  30.808  15.272  0.00  0.00    +0.227 C 
ATOM     31  O   VAL A  10       9.831  29.732  15.182  0.00  0.00    -0.286 OA
ENDBRANCH  26  30
ENDBRANCH  24  26
ENDBRANCH  21  22
BRANCH  21  32
ATOM     32  CB  THR A   9       9.544  31.362  20.631  0.00  0.00    +0.137 C 
ATOM     33  CG2 THR A   9       8.650  30.297  20.009  0.00  0.00    +0.034 C 
BRANCH  32  34
ATOM     34  OG1 THR A   9      10.242  30.783  21.762  0.00  0.00    -0.382 OA
ATOM     35  HG1 THR A   9      10.803  31.476  22.192  0.00  0.00    +0.210 HD
ENDBRANCH  32  34
ENDBRANCH  21  32
ENDBRANCH  18  21
ENDBRANCH  16  17
BRANCH  16  36
ATOM     36  CB  ASP A   8      12.812  35.576  19.721  0.00  0.00    +0.143 C 
BRANCH  36  37
ATOM     37  CG  ASP A   8      13.334  36.880  20.086  0.00  0.00    +0.367 C 
ATOM     38  OD2 ASP A   8      13.101  37.357  21.216  0.00  0.00    -0.246 OA
ATOM     39  OD1 ASP A   8      14.023  37.471  19.181  0.00  0.00    -0.246 OA
ENDBRANCH  36  37
ENDBRANCH  16  36
ENDBRANCH  14  16
ENDBRANCH  11  12
BRANCH  11  40
ATOM     40  CB  ASP A   7      16.910  36.199  22.116  0.00  0.00    +0.143 C 
BRANCH  40  41
ATOM     41  CG  ASP A   7      18.358  36.602  22.268  0.00  0.00    +0.367 C 
ATOM     42  OD2 ASP A   7      19.160  35.839  22.800  0.00  0.00    -0.246 OA
ATOM     43  OD1 ASP A   7      18.620  37.770  21.857  0.00  0.00    -0.246 OA
ENDBRANCH  40  41
ENDBRANCH  11  40
ENDBRANCH   9  11
ENDBRANCH   5   7
ENDBRANCH   2   5
BRANCH   1  44
ATOM     44  CA  GLY A   5      21.069  30.122  20.860  0.00  0.00    +0.176 C 
BRANCH  44  47
ATOM     45  C   THR A   4      20.193  28.921  22.766  0.00  0.00    +0.243 C 
ATOM     46  O   THR A   4      20.422  29.867  23.541  0.00  0.00    -0.273 OA
ATOM     47  N   GLY A   5      20.489  28.928  21.479  0.00  0.00    -0.295 N 
ATOM     48  H   GLY A   5      20.309  28.081  20.902  0.00  0.00    +0.150 HD
BRANCH  45  49
ATOM     49  CA  THR A   4      19.572  27.673  23.373  0.00  0.00    +0.176 C 
BRANCH  49  51
ATOM     50  C   ASP A   3      17.876  27.265  21.738  0.00  0.00    +0.241 C 
ATOM     51  N   THR A   4      18.971  26.821  22.356  0.00  0.00    -0.295 N 
ATOM     52  H   THR A   4      19.383  25.896  22.119  0.00  0.00    +0.150 HD
ATOM     53  O   ASP A   3      17.399  28.375  21.908  0.00  0.00    -0.273 OA
BRANCH  50  54
ATOM     54  CA  ASP A   3      17.329  26.310  20.662  0.00  0.00    +0.160 C 
BRANCH  54  56
ATOM     55  C   LEU A   2      16.167  24.197  21.024  0.00  0.00    +0.241 C 
ATOM     56  N   ASP A   3      16.200  25.513  21.095  0.00  0.00    -0.297 N 
ATOM     57  H   ASP A   3      15.370  26.006  21.483  0.00  0.00    +0.150 HD
ATOM     58  O   LEU A   2      17.186  23.493  20.883  0.00  0.00    -0.273 OA
BRANCH  55  59
ATOM     59  CA  LEU A   2      14.799  23.503  21.076  0.00  0.00    +0.149 C 
BRANCH  59  61
ATOM     60  C   LEU A   1      14.021  23.636  18.754  0.00  0.00    +0.238 C 
ATOM     61  N   LEU A   2      14.483  22.913  19.777  0.00  0.00    -0.297 N 
ATOM     62  H   LEU A   2      14.623  21.891  19.644  0.00  0.00    +0.150 HD
ATOM     63  O   LEU A   1      13.844  24.858  18.850  0.00  0.00    -0.274 OA
BRANCH  60  64
ATOM     64  CA  LEU A   1      13.783  22.978  17.415  0.00  0.00    +0.145 C 
BRANCH  64  65
ATOM     65  N   LEU A   1      12.413  23.158  16.980  0.00  0.00    -0.238 NA
ATOM     66  H   LEU A   1      12.187  24.009  16.427  0.00  0.00    +0.142 HD
ENDBRANCH  64  65
BRANCH  64  67
ATOM     67  CB  LEU A   1      14.622  23.618  16.277  0.00  0.00    +0.026 C 
BRANCH  67  68
ATOM     68  CG  LEU A   1      16.136  23.564  16.442  0.00  0.00    +0.002 C 
ATOM     69  CD2 LEU A   1      16.643  22.154  16.321  0.00  0.00    +0.000 C 
ATOM     70  CD1 LEU A   1      16.773  24.463  15.383  0.00  0.00    +0.000 C 
ENDBRANCH  67  68
ENDBRANCH  64  67
ENDBRANCH  60  64
ENDBRANCH  59  61
BRANCH  59  71
ATOM     71  CB  LEU A   2      14.836  22.422  22.126  0.00  0.00    +0.029 C 
BRANCH  71  72
ATOM     72  CG  LEU A   2      13.543  21.636  22.386  0.00  0.00    +0.002 C 
ATOM     73  CD2 LEU A   2      13.808  20.566  23.423  0.00  0.00    +0.000 C 
ATOM     74  CD1 LEU A   2      12.382  22.564  22.770  0.00  0.00    +0.000 C 
ENDBRANCH  71  72
ENDBRANCH  59  71
ENDBRANCH  55  59
ENDBRANCH  54  56
BRANCH  54  75
ATOM     75  CB  ASP A   3      16.941  27.109  19.408  0.00  0.00    +0.143 C 
BRANCH  75  76
ATOM     76  CG  ASP A   3      18.190  27.754  18.821  0.00  0.00    +0.367 C 
ATOM     77  OD2 ASP A   3      19.266  27.619  19.394  0.00  0.00    -0.246 OA
ATOM     78  OD1 ASP A   3      18.000  28.371  17.719  0.00  0.00    -0.246 OA
ENDBRANCH  75  76
ENDBRANCH  54  75
ENDBRANCH  50  54
ENDBRANCH  49  51
BRANCH  49  79
ATOM     79  CB  THR A   4      20.628  26.879  24.162  0.00  0.00    +0.137 C 
ATOM     80  CG2 THR A   4      19.965  25.703  24.874  0.00  0.00    +0.034 C 
BRANCH  79  81
ATOM     81  OG1 THR A   4      21.622  26.383  23.261  0.00  0.00    -0.382 OA
ATOM     82  HG1 THR A   4      22.056  27.144  22.800  0.00  0.00    +0.210 HD
ENDBRANCH  79  81
ENDBRANCH  49  79
ENDBRANCH  45  49
ENDBRANCH  44  47
ENDBRANCH   1  44
TORSDOF 35
REMARK  Name = ../refined-set-2016/2nmz/2nmz_pocket.pdb
REMARK  224 active torsions:
REMARK  status: ('A' for Active; 'I' for Inactive)
REMARK    1  A    between atoms: _1  and  _3
REMARK    2  A    between atoms: _3  and  _4
REMARK    3  A    between atoms: _3  and  _6
REMARK    4  A    between atoms: _6  and  _7
REMARK    5  A    between atoms: _7  and  _8
REMARK    6  A    between atoms: _8  and  _9
REMARK    7  A    between atoms: _18  and  _20
REMARK    8  A    between atoms: _20  and  _21
REMARK    9  A    between atoms: _20  and  _23
REMARK   10  A    between atoms: _23  and  _24
REMARK   11  A    between atoms: _27  and  _29
REMARK   12  A    between atoms: _29  and  _30
REMARK   13  A    between atoms: _29  and  _32
REMARK   14  A    between atoms: _32  and  _33
REMARK   15  A    between atoms: _36  and  _38
REMARK   16  A    between atoms: _38  and  _39
REMARK   17  A    between atoms: _38  and  _41
REMARK   18  A    between atoms: _41  and  _42
REMARK   19  A    between atoms: _45  and  _47
REMARK   20  A    between atoms: _47  and  _48
REMARK   21  A    between atoms: _47  and  _50
REMARK   22  A    between atoms: _50  and  _51
REMARK   23  A    between atoms: _54  and  _56
REMARK   24  A    between atoms: _56  and  _57
REMARK   25  A    between atoms: _59  and  _61
REMARK   26  A    between atoms: _61  and  _62
REMARK   27  A    between atoms: _65  and  _67
REMARK   28  A    between atoms: _67  and  _68
REMARK   29  A    between atoms: _67  and  _70
REMARK   30  A    between atoms: _70  and  _71
REMARK   31  A    between atoms: _74  and  _76
REMARK   32  A    between atoms: _76  and  _77
REMARK   33  A    between atoms: _76  and  _79
REMARK   34  A    between atoms: _79  and  _80
REMARK   35  A    between atoms: _83  and  _85
REMARK   36  A    between atoms: _85  and  _86
REMARK   37  A    between atoms: _85  and  _88
REMARK   38  A    between atoms: _88  and  _89
REMARK   39  A    between atoms: _92  and  _94
REMARK   40  A    between atoms: _94  and  _95
REMARK   41  A    between atoms: _94  and  _97
REMARK   42  A    between atoms: _100  and  _102
REMARK   43  A    between atoms: _102  and  _103
REMARK   44  A    between atoms: _102  and  _105
REMARK   45  A    between atoms: _105  and  _106
REMARK   46  A    between atoms: _106  and  _107
REMARK   47  A    between atoms: _107  and  _108
REMARK   48  A    between atoms: _108  and  _109
REMARK   49  A    between atoms: _113  and  _115
REMARK   50  A    between atoms: _115  and  _116
REMARK   51  A    between atoms: _115  and  _118
REMARK   52  A    between atoms: _118  and  _119
REMARK   53  A    between atoms: _119  and  _120
REMARK   54  A    between atoms: _122  and  _124
REMARK   55  A    between atoms: _124  and  _125
REMARK   56  A    between atoms: _124  and  _127
REMARK   57  A    between atoms: _127  and  _128
REMARK   58  A    between atoms: _131  and  _133
REMARK   59  A    between atoms: _133  and  _134
REMARK   60  A    between atoms: _136  and  _138
REMARK   61  A    between atoms: _138  and  _139
REMARK   62  A    between atoms: _141  and  _143
REMARK   63  A    between atoms: _143  and  _144
REMARK   64  A    between atoms: _143  and  _146
REMARK   65  A    between atoms: _146  and  _147
REMARK   66  A    between atoms: _150  and  _152
REMARK   67  A    between atoms: _152  and  _153
REMARK   68  A    between atoms: _155  and  _157
REMARK   69  A    between atoms: _157  and  _158
REMARK   70  A    between atoms: _160  and  _162
REMARK   71  A    between atoms: _162  and  _163
REMARK   72  A    between atoms: _162  and  _165
REMARK   73  A    between atoms: _165  and  _166
REMARK   74  A    between atoms: _172  and  _174
REMARK   75  A    between atoms: _174  and  _175
REMARK   76  A    between atoms: _174  and  _177
REMARK   77  A    between atoms: _177  and  _178
REMARK   78  A    between atoms: _181  and  _183
REMARK   79  A    between atoms: _183  and  _184
REMARK   80  A    between atoms: _183  and  _186
REMARK   81  A    between atoms: _189  and  _191
REMARK   82  A    between atoms: _191  and  _192
REMARK   83  A    between atoms: _191  and  _194
REMARK   84  A    between atoms: _194  and  _195
REMARK   85  A    between atoms: _199  and  _200
REMARK   86  A    between atoms: _205  and  _207
REMARK   87  A    between atoms: _207  and  _208
REMARK   88  A    between atoms: _207  and  _210
REMARK   89  A    between atoms: _210  and  _211
REMARK   90  A    between atoms: _215  and  _216
REMARK   91  A    between atoms: _221  and  _223
REMARK   92  A    between atoms: _223  and  _224
REMARK   93  A    between atoms: _227  and  _229
REMARK   94  A    between atoms: _229  and  _230
REMARK   95  A    between atoms: _229  and  _232
REMARK   96  A    between atoms: _232  and  _233
REMARK   97  A    between atoms: _238  and  _240
REMARK   98  A    between atoms: _240  and  _241
REMARK   99  A    between atoms: _240  and  _243
REMARK  100  A    between atoms: _243  and  _244
REMARK  101  A    between atoms: _247  and  _249
REMARK  102  A    between atoms: _249  and  _250
REMARK  103  A    between atoms: _249  and  _252
REMARK  104  A    between atoms: _252  and  _253
REMARK  105  A    between atoms: _256  and  _258
REMARK  106  A    between atoms: _258  and  _259
REMARK  107  A    between atoms: _261  and  _263
REMARK  108  A    between atoms: _263  and  _264
REMARK  109  A    between atoms: _263  and  _266
REMARK  110  A    between atoms: _266  and  _267
REMARK  111  A    between atoms: _267  and  _268
REMARK  112  A    between atoms: _268  and  _269
REMARK  113  A    between atoms: _278  and  _280
REMARK  114  A    between atoms: _280  and  _281
REMARK  115  A    between atoms: _280  and  _283
REMARK  116  A    between atoms: _283  and  _284
REMARK  117  A    between atoms: _289  and  _291
REMARK  118  A    between atoms: _291  and  _292
REMARK  119  A    between atoms: _291  and  _294
REMARK  120  A    between atoms: _294  and  _295
REMARK  121  A    between atoms: _295  and  _296
REMARK  122  A    between atoms: _296  and  _297
REMARK  123  A    between atoms: _306  and  _308
REMARK  124  A    between atoms: _308  and  _309
REMARK  125  A    between atoms: _308  and  _311
REMARK  126  A    between atoms: _311  and  _312
REMARK  127  A    between atoms: _315  and  _317
REMARK  128  A    between atoms: _317  and  _318
REMARK  129  A    between atoms: _317  and  _320
REMARK  130  A    between atoms: _320  and  _321
REMARK  131  A    between atoms: _324  and  _326
REMARK  132  A    between atoms: _326  and  _327
REMARK  133  A    between atoms: _326  and  _329
REMARK  134  A    between atoms: _329  and  _330
REMARK  135  A    between atoms: _333  and  _335
REMARK  136  A    between atoms: _335  and  _336
REMARK  137  A    between atoms: _335  and  _338
REMARK  138  A    between atoms: _338  and  _339
REMARK  139  A    between atoms: _342  and  _344
REMARK  140  A    between atoms: _344  and  _345
REMARK  141  A    between atoms: _347  and  _349
REMARK  142  A    between atoms: _349  and  _350
REMARK  143  A    between atoms: _353  and  _355
REMARK  144  A    between atoms: _355  and  _356
REMARK  145  A    between atoms: _355  and  _358
REMARK  146  A    between atoms: _358  and  _359
REMARK  147  A    between atoms: _362  and  _364
REMARK  148  A    between atoms: _364  and  _365
REMARK  149  A    between atoms: _364  and  _367
REMARK  150  A    between atoms: _367  and  _368
REMARK  151  A    between atoms: _371  and  _373
REMARK  152  A    between atoms: _373  and  _374
REMARK  153  A    between atoms: _373  and  _376
REMARK  154  A    between atoms: _376  and  _377
REMARK  155  A    between atoms: _380  and  _382
REMARK  156  A    between atoms: _382  and  _383
REMARK  157  A    between atoms: _382  and  _385
REMARK  158  A    between atoms: _388  and  _390
REMARK  159  A    between atoms: _390  and  _391
REMARK  160  A    between atoms: _390  and  _393
REMARK  161  A    between atoms: _393  and  _394
REMARK  162  A    between atoms: _394  and  _395
REMARK  163  A    between atoms: _397  and  _399
REMARK  164  A    between atoms: _399  and  _400
REMARK  165  A    between atoms: _399  and  _402
REMARK  166  A    between atoms: _402  and  _403
REMARK  167  A    between atoms: _406  and  _408
REMARK  168  A    between atoms: _408  and  _409
REMARK  169  A    between atoms: _411  and  _413
REMARK  170  A    between atoms: _413  and  _414
REMARK  171  A    between atoms: _416  and  _418
REMARK  172  A    between atoms: _418  and  _419
REMARK  173  A    between atoms: _418  and  _421
REMARK  174  A    between atoms: _421  and  _422
REMARK  175  A    between atoms: _425  and  _427
REMARK  176  A    between atoms: _427  and  _428
REMARK  177  A    between atoms: _430  and  _432
REMARK  178  A    between atoms: _432  and  _433
REMARK  179  A    between atoms: _435  and  _437
REMARK  180  A    between atoms: _437  and  _438
REMARK  181  A    between atoms: _437  and  _440
REMARK  182  A    between atoms: _440  and  _441
REMARK  183  A    between atoms: _447  and  _449
REMARK  184  A    between atoms: _449  and  _450
REMARK  185  A    between atoms: _449  and  _452
REMARK  186  A    between atoms: _452  and  _453
REMARK  187  A    between atoms: _456  and  _458
REMARK  188  A    between atoms: _458  and  _459
REMARK  189  A    between atoms: _458  and  _461
REMARK  190  A    between atoms: _464  and  _466
REMARK  191  A    between atoms: _466  and  _467
REMARK  192  A    between atoms: _466  and  _469
REMARK  193  A    between atoms: _469  and  _470
REMARK  194  A    between atoms: _473  and  _475
REMARK  195  A    between atoms: _475  and  _476
REMARK  196  A    between atoms: _475  and  _478
REMARK  197  A    between atoms: _478  and  _479
REMARK  198  A    between atoms: _483  and  _484
REMARK  199  A    between atoms: _489  and  _491
REMARK  200  A    between atoms: _491  and  _492
REMARK  201  A    between atoms: _495  and  _497
REMARK  202  A    between atoms: _497  and  _498
REMARK  203  A    between atoms: _497  and  _500
REMARK  204  A    between atoms: _500  and  _501
REMARK  205  A    between atoms: _506  and  _508
REMARK  206  A    between atoms: _508  and  _509
REMARK  207  A    between atoms: _508  and  _511
REMARK  208  A    between atoms: _511  and  _512
REMARK  209  A    between atoms: _515  and  _517
REMARK  210  A    between atoms: _517  and  _518
REMARK  211  A    between atoms: _517  and  _520
REMARK  212  A    between atoms: _520  and  _521
REMARK  213  A    between atoms: _524  and  _526
REMARK  214  A    between atoms: _526  and  _527
REMARK  215  A    between atoms: _529  and  _531
REMARK  216  A    between atoms: _531  and  _532
REMARK  217  A    between atoms: _531  and  _534
REMARK  218  A    between atoms: _534  and  _535
REMARK  219  A    between atoms: _535  and  _536
REMARK  220  A    between atoms: _536  and  _537
REMARK  221  A    between atoms: _546  and  _548
REMARK  222  A    between atoms: _548  and  _549
REMARK  223  A    between atoms: _548  and  _551
REMARK  224  A    between atoms: _551  and  _552
REMARK                            x       y       z     vdW  Elec       q    Type
REMARK                         _______ _______ _______ _____ _____    ______ ____
ROOT
ATOM      1  C   GLY A   5      21.689  35.979  11.756  0.00  0.00    +0.243 C 
ATOM      2  N   ILE A   6      22.189  34.789  11.542  0.00  0.00    -0.297 N 
ATOM      3  H   ILE A   6      21.946  34.006  12.181  0.00  0.00    +0.150 HD
ATOM      4  O   GLY A   5      21.925  36.951  11.044  0.00  0.00    -0.273 OA
ENDROOT
BRANCH   2   5
ATOM      5  CA  ILE A   6      23.085  34.550  10.414  0.00  0.00    +0.149 C 
BRANCH   5   6
ATOM      6  C   ILE A   6      22.305  34.824   9.141  0.00  0.00    +0.241 C 
ATOM      7  O   ILE A   6      21.172  34.374   8.963  0.00  0.00    -0.273 OA
ATOM      8  N   GLY A   7      22.925  35.602   8.240  0.00  0.00    -0.295 N 
ATOM      9  H   GLY A   7      23.874  35.980   8.434  0.00  0.00    +0.150 HD
BRANCH   8  10
ATOM     10  CA  GLY A   7      22.259  35.905   7.002  0.00  0.00    +0.176 C 
BRANCH  10  11
ATOM     11  C   GLY A   7      21.497  37.211   6.984  0.00  0.00    +0.243 C 
ATOM     12  N   GLY A   8      21.161  37.781   8.141  0.00  0.00    -0.295 N 
ATOM     13  H   GLY A   8      21.390  37.320   9.045  0.00  0.00    +0.150 HD
ATOM     14  O   GLY A   7      21.219  37.704   5.892  0.00  0.00    -0.273 OA
BRANCH  12  15
ATOM     15  CA  GLY A   8      20.467  39.062   8.115  0.00  0.00    +0.176 C 
BRANCH  15  16
ATOM     16  C   GLY A   8      19.160  38.993   8.860  0.00  0.00    +0.243 C 
ATOM     17  O   GLY A   8      18.982  38.170   9.753  0.00  0.00    -0.273 OA
ATOM     18  N   PHE A   9      18.259  39.890   8.539  0.00  0.00    -0.297 N 
ATOM     19  H   PHE A   9      18.459  40.520   7.736  0.00  0.00    +0.150 HD
BRANCH  18  20
ATOM     20  CA  PHE A   9      16.994  40.055   9.243  0.00  0.00    +0.153 C 
BRANCH  20  21
ATOM     21  C   PHE A   9      15.813  39.592   8.431  0.00  0.00    +0.241 C 
ATOM     22  N   ILE A  10      14.768  39.189   9.150  0.00  0.00    -0.298 N 
ATOM     23  H   ILE A  10      14.889  39.076  10.177  0.00  0.00    +0.150 HD
ATOM     24  O   PHE A   9      15.824  39.602   7.169  0.00  0.00    -0.273 OA
BRANCH  22  25
ATOM     25  CA  ILE A  10      13.465  38.898   8.572  0.00  0.00    +0.137 C 
BRANCH  25  26
ATOM     26  C   ILE A  10      12.405  39.676   9.312  0.00  0.00    +0.227 C 
ATOM     27  O   ILE A  10      12.563  40.065  10.483  0.00  0.00    -0.286 OA
ENDBRANCH  25  26
BRANCH  25  28
ATOM     28  CB  ILE A  10      13.124  37.391   8.555  0.00  0.00    +0.026 C 
ATOM     29  CG2 ILE A  10      14.126  36.596   7.694  0.00  0.00    +0.002 C 
BRANCH  28  30
ATOM     30  CG1 ILE A  10      13.017  36.811   9.928  0.00  0.00    +0.002 C 
ATOM     31  CD1 ILE A  10      12.364  35.444   9.948  0.00  0.00    +0.000 C 
ENDBRANCH  28  30
ENDBRANCH  25  28
ENDBRANCH  22  25
ENDBRANCH  20  21
BRANCH  20  32
ATOM     32  CB  PHE A   9      16.790  41.546   9.606  0.00  0.00    +0.055 C 
BRANCH  32  33
ATOM     33  CG  PHE A   9      17.674  42.019  10.728  0.00  0.00    -0.020 A 
ATOM     34  CD2 PHE A   9      17.158  42.181  12.006  0.00  0.00    -0.004 A 
ATOM     35  CE2 PHE A   9      17.955  42.569  13.058  0.00  0.00    -0.000 A 
ATOM     36  CZ  PHE A   9      19.297  42.839  12.835  0.00  0.00    -0.000 A 
ATOM     37  CE1 PHE A   9      19.805  42.662  11.567  0.00  0.00    -0.000 A 
ATOM     38  CD1 PHE A   9      19.027  42.282  10.504  0.00  0.00    -0.004 A 
ENDBRANCH  32  33
ENDBRANCH  20  32
ENDBRANCH  18  20
ENDBRANCH  15  16
ENDBRANCH  12  15
ENDBRANCH  10  11
ENDBRANCH   8  10
ENDBRANCH   5   6
BRANCH   5  39
ATOM     39  CB  ILE A   6      23.652  33.086  10.579  0.00  0.00    +0.027 C 
ATOM     40  CG2 ILE A   6      22.902  32.311   9.514  0.00  0.00    +0.002 C 
BRANCH  39  41
ATOM     41  CG1 ILE A   6      25.138  33.017  10.552  0.00  0.00    +0.002 C 
ATOM     42  CD1 ILE A   6      25.938  32.159  11.450  0.00  0.00    +0.000 C 
ENDBRANCH  39  41
ENDBRANCH   5  39
ENDBRANCH   2   5
BRANCH   1  43
ATOM     43  CA  GLY A   5      20.759  36.079  12.956  0.00  0.00    +0.176 C 
BRANCH  43  46
ATOM     44  C   GLY A   4      18.857  37.626  13.353  0.00  0.00    +0.243 C 
ATOM     45  O   GLY A   4      18.543  37.094  14.416  0.00  0.00    -0.273 OA
ATOM     46  N   GLY A   5      19.834  37.175  12.599  0.00  0.00    -0.295 N 
ATOM     47  H   GLY A   5      19.968  37.628  11.672  0.00  0.00    +0.150 HD
BRANCH  44  48
ATOM     48  CA  GLY A   4      18.188  38.871  12.818  0.00  0.00    +0.176 C 
BRANCH  48  50
ATOM     49  C   ILE A   3      15.849  39.354  13.073  0.00  0.00    +0.241 C 
ATOM     50  N   GLY A   4      17.057  39.265  13.634  0.00  0.00    -0.295 N 
ATOM     51  H   GLY A   4      17.185  39.476  14.644  0.00  0.00    +0.150 HD
ATOM     52  O   ILE A   3      15.683  39.093  11.868  0.00  0.00    -0.273 OA
BRANCH  49  53
ATOM     53  CA  ILE A   3      14.718  39.831  13.957  0.00  0.00    +0.149 C 
BRANCH  53  56
ATOM     54  C   MET A   2      13.444  41.873  13.556  0.00  0.00    +0.241 C 
ATOM     55  O   MET A   2      13.844  42.401  14.574  0.00  0.00    -0.273 OA
ATOM     56  N   ILE A   3      13.796  40.637  13.164  0.00  0.00    -0.297 N 
ATOM     57  H   ILE A   3      13.405  40.249  12.282  0.00  0.00    +0.150 HD
BRANCH  54  58
ATOM     58  CA  MET A   2      12.458  42.589  12.629  0.00  0.00    +0.149 C 
BRANCH  58  60
ATOM     59  C   LYS A   1      10.134  42.874  13.311  0.00  0.00    +0.238 C 
ATOM     60  N   MET A   2      11.426  43.171  13.449  0.00  0.00    -0.297 N 
ATOM     61  H   MET A   2      11.702  43.855  14.183  0.00  0.00    +0.150 HD
ATOM     62  O   LYS A   1       9.697  42.216  12.371  0.00  0.00    -0.274 OA
BRANCH  59  63
ATOM     63  CA  LYS A   1       9.205  43.326  14.420  0.00  0.00    +0.145 C 
BRANCH  63  64
ATOM     64  N   LYS A   1       7.871  43.528  13.869  0.00  0.00    -0.238 NA
ATOM     65  H   LYS A   1       7.565  42.935  13.071  0.00  0.00    +0.142 HD
ENDBRANCH  63  64
BRANCH  63  66
ATOM     66  CB  LYS A   1       9.135  42.316  15.561  0.00  0.00    +0.026 C 
BRANCH  66  67
ATOM     67  CG  LYS A   1      10.358  42.235  16.488  0.00  0.00    -0.000 C 
BRANCH  67  68
ATOM     68  CD  LYS A   1      10.143  41.215  17.577  0.00  0.00    -0.024 C 
BRANCH  68  69
ATOM     69  CE  LYS A   1      11.242  41.059  18.561  0.00  0.00    -0.086 C 
BRANCH  69  70
ATOM     70  NZ  LYS A   1      11.321  42.224  19.410  0.00  0.00    +0.380 N 
ATOM     71  HZ1 LYS A   1      12.095  42.101  20.094  0.00  0.00    -0.089 HD
ATOM     72  HZ2 LYS A   1      10.422  42.342  19.919  0.00  0.00    -0.089 HD
ATOM     73  HZ3 LYS A   1      11.503  43.065  18.826  0.00  0.00    -0.089 HD
ENDBRANCH  69  70
ENDBRANCH  68  69
ENDBRANCH  67  68
ENDBRANCH  66  67
ENDBRANCH  63  66
ENDBRANCH  59  63
ENDBRANCH  58  60
BRANCH  58  74
ATOM     74  CB  MET A   2      13.176  43.629  11.784  0.00  0.00    +0.041 C 
BRANCH  74  75
ATOM     75  CG  MET A   2      12.446  44.458  10.790  0.00  0.00    +0.060 C 
BRANCH  75  76
ATOM     76  SD  MET A   2      12.933  43.525   9.318  0.00  0.00    -0.139 S 
ATOM     77  CE  MET A   2      14.365  44.463   8.825  0.00  0.00    +0.069 C 
ENDBRANCH  75  76
ENDBRANCH  74  75
ENDBRANCH  58  74
ENDBRANCH  54  58
ENDBRANCH  53  56
BRANCH  53  78
ATOM     78  CB  ILE A   3      14.033  38.677  14.677  0.00  0.00    +0.027 C 
ATOM     79  CG2 ILE A   3      13.090  39.226  15.763  0.00  0.00    +0.002 C 
BRANCH  78  80
ATOM     80  CG1 ILE A   3      13.371  37.702  13.675  0.00  0.00    +0.002 C 
ATOM     81  CD1 ILE A   3      12.806  36.467  14.277  0.00  0.00    +0.000 C 
ENDBRANCH  78  80
ENDBRANCH  53  78
ENDBRANCH  49  53
ENDBRANCH  48  50
ENDBRANCH  44  48
ENDBRANCH  43  46
ENDBRANCH   1  43
TORSDOF 36
REMARK  Name = ../refined-set-2016/2nmz/2nmz_pocket.pdb
REMARK  224 active torsions:
REMARK  status: ('A' for Active; 'I' for Inactive)
REMARK    1  A    between atoms: _1  and  _3
REMARK    2  A    between atoms: _3  and  _4
REMARK    3  A    between atoms: _3  and  _6
REMARK    4  A    between atoms: _6  and  _7
REMARK    5  A    between atoms: _7  and  _8
REMARK    6  A    between atoms: _8  and  _9
REMARK    7  A    between atoms: _18  and  _20
REMARK    8  A    between atoms: _20  and  _21
REMARK    9  A    between atoms: _20  and  _23
REMARK   10  A    between atoms: _23  and  _24
REMARK   11  A    between atoms: _27  and  _29
REMARK   12  A    between atoms: _29  and  _30
REMARK   13  A    between atoms: _29  and  _32
REMARK   14  A    between atoms: _32  and  _33
REMARK   15  A    between atoms: _36  and  _38
REMARK   16  A    between atoms: _38  and  _39
REMARK   17  A    between atoms: _38  and  _41
REMARK   18  A    between atoms: _41  and  _42
REMARK   19  A    between atoms: _45  and  _47
REMARK   20  A    between atoms: _47  and  _48
REMARK   21  A    between atoms: _47  and  _50
REMARK   22  A    between atoms: _50  and  _51
REMARK   23  A    between atoms: _54  and  _56
REMARK   24  A    between atoms: _56  and  _57
REMARK   25  A    between atoms: _59  and  _61
REMARK   26  A    between atoms: _61  and  _62
REMARK   27  A    between atoms: _65  and  _67
REMARK   28  A    between atoms: _67  and  _68
REMARK   29  A    between atoms: _67  and  _70
REMARK   30  A    between atoms: _70  and  _71
REMARK   31  A    between atoms: _74  and  _76
REMARK   32  A    between atoms: _76  and  _77
REMARK   33  A    between atoms: _76  and  _79
REMARK   34  A    between atoms: _79  and  _80
REMARK   35  A    between atoms: _83  and  _85
REMARK   36  A    between atoms: _85  and  _86
REMARK   37  A    between atoms: _85  and  _88
REMARK   38  A    between atoms: _88  and  _89
REMARK   39  A    between atoms: _92  and  _94
REMARK   40  A    between atoms: _94  and  _95
REMARK   41  A    between atoms: _94  and  _97
REMARK   42  A    between atoms: _100  and  _102
REMARK   43  A    between atoms: _102  and  _103
REMARK   44  A    between atoms: _102  and  _105
REMARK   45  A    between atoms: _105  and  _106
REMARK   46  A    between atoms: _106  and  _107
REMARK   47  A    between atoms: _107  and  _108
REMARK   48  A    between atoms: _108  and  _109
REMARK   49  A    between atoms: _113  and  _115
REMARK   50  A    between atoms: _115  and  _116
REMARK   51  A    between atoms: _115  and  _118
REMARK   52  A    between atoms: _118  and  _119
REMARK   53  A    between atoms: _119  and  _120
REMARK   54  A    between atoms: _122  and  _124
REMARK   55  A    between atoms: _124  and  _125
REMARK   56  A    between atoms: _124  and  _127
REMARK   57  A    between atoms: _127  and  _128
REMARK   58  A    between atoms: _131  and  _133
REMARK   59  A    between atoms: _133  and  _134
REMARK   60  A    between atoms: _136  and  _138
REMARK   61  A    between atoms: _138  and  _139
REMARK   62  A    between atoms: _141  and  _143
REMARK   63  A    between atoms: _143  and  _144
REMARK   64  A    between atoms: _143  and  _146
REMARK   65  A    between atoms: _146  and  _147
REMARK   66  A    between atoms: _150  and  _152
REMARK   67  A    between atoms: _152  and  _153
REMARK   68  A    between atoms: _155  and  _157
REMARK   69  A    between atoms: _157  and  _158
REMARK   70  A    between atoms: _160  and  _162
REMARK   71  A    between atoms: _162  and  _163
REMARK   72  A    between atoms: _162  and  _165
REMARK   73  A    between atoms: _165  and  _166
REMARK   74  A    between atoms: _172  and  _174
REMARK   75  A    between atoms: _174  and  _175
REMARK   76  A    between atoms: _174  and  _177
REMARK   77  A    between atoms: _177  and  _178
REMARK   78  A    between atoms: _181  and  _183
REMARK   79  A    between atoms: _183  and  _184
REMARK   80  A    between atoms: _183  and  _186
REMARK   81  A    between atoms: _189  and  _191
REMARK   82  A    between atoms: _191  and  _192
REMARK   83  A    between atoms: _191  and  _194
REMARK   84  A    between atoms: _194  and  _195
REMARK   85  A    between atoms: _199  and  _200
REMARK   86  A    between atoms: _205  and  _207
REMARK   87  A    between atoms: _207  and  _208
REMARK   88  A    between atoms: _207  and  _210
REMARK   89  A    between atoms: _210  and  _211
REMARK   90  A    between atoms: _215  and  _216
REMARK   91  A    between atoms: _221  and  _223
REMARK   92  A    between atoms: _223  and  _224
REMARK   93  A    between atoms: _227  and  _229
REMARK   94  A    between atoms: _229  and  _230
REMARK   95  A    between atoms: _229  and  _232
REMARK   96  A    between atoms: _232  and  _233
REMARK   97  A    between atoms: _238  and  _240
REMARK   98  A    between atoms: _240  and  _241
REMARK   99  A    between atoms: _240  and  _243
REMARK  100  A    between atoms: _243  and  _244
REMARK  101  A    between atoms: _247  and  _249
REMARK  102  A    between atoms: _249  and  _250
REMARK  103  A    between atoms: _249  and  _252
REMARK  104  A    between atoms: _252  and  _253
REMARK  105  A    between atoms: _256  and  _258
REMARK  106  A    between atoms: _258  and  _259
REMARK  107  A    between atoms: _261  and  _263
REMARK  108  A    between atoms: _263  and  _264
REMARK  109  A    between atoms: _263  and  _266
REMARK  110  A    between atoms: _266  and  _267
REMARK  111  A    between atoms: _267  and  _268
REMARK  112  A    between atoms: _268  and  _269
REMARK  113  A    between atoms: _278  and  _280
REMARK  114  A    between atoms: _280  and  _281
REMARK  115  A    between atoms: _280  and  _283
REMARK  116  A    between atoms: _283  and  _284
REMARK  117  A    between atoms: _289  and  _291
REMARK  118  A    between atoms: _291  and  _292
REMARK  119  A    between atoms: _291  and  _294
REMARK  120  A    between atoms: _294  and  _295
REMARK  121  A    between atoms: _295  and  _296
REMARK  122  A    between atoms: _296  and  _297
REMARK  123  A    between atoms: _306  and  _308
REMARK  124  A    between atoms: _308  and  _309
REMARK  125  A    between atoms: _308  and  _311
REMARK  126  A    between atoms: _311  and  _312
REMARK  127  A    between atoms: _315  and  _317
REMARK  128  A    between atoms: _317  and  _318
REMARK  129  A    between atoms: _317  and  _320
REMARK  130  A    between atoms: _320  and  _321
REMARK  131  A    between atoms: _324  and  _326
REMARK  132  A    between atoms: _326  and  _327
REMARK  133  A    between atoms: _326  and  _329
REMARK  134  A    between atoms: _329  and  _330
REMARK  135  A    between atoms: _333  and  _335
REMARK  136  A    between atoms: _335  and  _336
REMARK  137  A    between atoms: _335  and  _338
REMARK  138  A    between atoms: _338  and  _339
REMARK  139  A    between atoms: _342  and  _344
REMARK  140  A    between atoms: _344  and  _345
REMARK  141  A    between atoms: _347  and  _349
REMARK  142  A    between atoms: _349  and  _350
REMARK  143  A    between atoms: _353  and  _355
REMARK  144  A    between atoms: _355  and  _356
REMARK  145  A    between atoms: _355  and  _358
REMARK  146  A    between atoms: _358  and  _359
REMARK  147  A    between atoms: _362  and  _364
REMARK  148  A    between atoms: _364  and  _365
REMARK  149  A    between atoms: _364  and  _367
REMARK  150  A    between atoms: _367  and  _368
REMARK  151  A    between atoms: _371  and  _373
REMARK  152  A    between atoms: _373  and  _374
REMARK  153  A    between atoms: _373  and  _376
REMARK  154  A    between atoms: _376  and  _377
REMARK  155  A    between atoms: _380  and  _382
REMARK  156  A    between atoms: _382  and  _383
REMARK  157  A    between atoms: _382  and  _385
REMARK  158  A    between atoms: _388  and  _390
REMARK  159  A    between atoms: _390  and  _391
REMARK  160  A    between atoms: _390  and  _393
REMARK  161  A    between atoms: _393  and  _394
REMARK  162  A    between atoms: _394  and  _395
REMARK  163  A    between atoms: _397  and  _399
REMARK  164  A    between atoms: _399  and  _400
REMARK  165  A    between atoms: _399  and  _402
REMARK  166  A    between atoms: _402  and  _403
REMARK  167  A    between atoms: _406  and  _408
REMARK  168  A    between atoms: _408  and  _409
REMARK  169  A    between atoms: _411  and  _413
REMARK  170  A    between atoms: _413  and  _414
REMARK  171  A    between atoms: _416  and  _418
REMARK  172  A    between atoms: _418  and  _419
REMARK  173  A    between atoms: _418  and  _421
REMARK  174  A    between atoms: _421  and  _422
REMARK  175  A    between atoms: _425  and  _427
REMARK  176  A    between atoms: _427  and  _428
REMARK  177  A    between atoms: _430  and  _432
REMARK  178  A    between atoms: _432  and  _433
REMARK  179  A    between atoms: _435  and  _437
REMARK  180  A    between atoms: _437  and  _438
REMARK  181  A    between atoms: _437  and  _440
REMARK  182  A    between atoms: _440  and  _441
REMARK  183  A    between atoms: _447  and  _449
REMARK  184  A    between atoms: _449  and  _450
REMARK  185  A    between atoms: _449  and  _452
REMARK  186  A    between atoms: _452  and  _453
REMARK  187  A    between atoms: _456  and  _458
REMARK  188  A    between atoms: _458  and  _459
REMARK  189  A    between atoms: _458  and  _461
REMARK  190  A    between atoms: _464  and  _466
REMARK  191  A    between atoms: _466  and  _467
REMARK  192  A    between atoms: _466  and  _469
REMARK  193  A    between atoms: _469  and  _470
REMARK  194  A    between atoms: _473  and  _475
REMARK  195  A    between atoms: _475  and  _476
REMARK  196  A    between atoms: _475  and  _478
REMARK  197  A    between atoms: _478  and  _479
REMARK  198  A    between atoms: _483  and  _484
REMARK  199  A    between atoms: _489  and  _491
REMARK  200  A    between atoms: _491  and  _492
REMARK  201  A    between atoms: _495  and  _497
REMARK  202  A    between atoms: _497  and  _498
REMARK  203  A    between atoms: _497  and  _500
REMARK  204  A    between atoms: _500  and  _501
REMARK  205  A    between atoms: _506  and  _508
REMARK  206  A    between atoms: _508  and  _509
REMARK  207  A    between atoms: _508  and  _511
REMARK  208  A    between atoms: _511  and  _512
REMARK  209  A    between atoms: _515  and  _517
REMARK  210  A    between atoms: _517  and  _518
REMARK  211  A    between atoms: _517  and  _520
REMARK  212  A    between atoms: _520  and  _521
REMARK  213  A    between atoms: _524  and  _526
REMARK  214  A    between atoms: _526  and  _527
REMARK  215  A    between atoms: _529  and  _531
REMARK  216  A    between atoms: _531  and  _532
REMARK  217  A    between atoms: _531  and  _534
REMARK  218  A    between atoms: _534  and  _535
REMARK  219  A    between atoms: _535  and  _536
REMARK  220  A    between atoms: _536  and  _537
REMARK  221  A    between atoms: _546  and  _548
REMARK  222  A    between atoms: _548  and  _549
REMARK  223  A    between atoms: _548  and  _551
REMARK  224  A    between atoms: _551  and  _552
REMARK                            x       y       z     vdW  Elec       q    Type
REMARK                         _______ _______ _______ _____ _____    ______ ____
ROOT
ATOM      1  CA  VAL A   1       7.859  38.916  11.703  0.00  0.00    +0.133 C 
ENDROOT
BRANCH   1   2
ATOM      2  CB  VAL A   1       8.609  38.043  12.726  0.00  0.00    +0.023 C 
ATOM      3  CG2 VAL A   1       9.269  38.911  13.782  0.00  0.00    +0.002 C 
ATOM      4  CG1 VAL A   1       9.607  37.136  12.058  0.00  0.00    +0.002 C 
ENDBRANCH   1   2
BRANCH   1   5
ATOM      5  N   VAL A   1       8.739  39.807  10.991  0.00  0.00    -0.239 NA
ATOM      6  H   VAL A   1       9.030  40.694  11.450  0.00  0.00    +0.142 HD
ENDBRANCH   1   5
BRANCH   1   7
ATOM      7  C   VAL A   1       6.742  39.718  12.376  0.00  0.00    +0.224 C 
ATOM      8  O   VAL A   1       6.809  40.944  12.559  0.00  0.00    -0.287 OA
ENDBRANCH   1   7
TORSDOF 3
REMARK  Name = ../refined-set-2016/2nmz/2nmz_pocket.pdb
REMARK  224 active torsions:
REMARK  status: ('A' for Active; 'I' for Inactive)
REMARK    1  A    between atoms: _1  and  _3
REMARK    2  A    between atoms: _3  and  _4
REMARK    3  A    between atoms: _3  and  _6
REMARK    4  A    between atoms: _6  and  _7
REMARK    5  A    between atoms: _7  and  _8
REMARK    6  A    between atoms: _8  and  _9
REMARK    7  A    between atoms: _18  and  _20
REMARK    8  A    between atoms: _20  and  _21
REMARK    9  A    between atoms: _20  and  _23
REMARK   10  A    between atoms: _23  and  _24
REMARK   11  A    between atoms: _27  and  _29
REMARK   12  A    between atoms: _29  and  _30
REMARK   13  A    between atoms: _29  and  _32
REMARK   14  A    between atoms: _32  and  _33
REMARK   15  A    between atoms: _36  and  _38
REMARK   16  A    between atoms: _38  and  _39
REMARK   17  A    between atoms: _38  and  _41
REMARK   18  A    between atoms: _41  and  _42
REMARK   19  A    between atoms: _45  and  _47
REMARK   20  A    between atoms: _47  and  _48
REMARK   21  A    between atoms: _47  and  _50
REMARK   22  A    between atoms: _50  and  _51
REMARK   23  A    between atoms: _54  and  _56
REMARK   24  A    between atoms: _56  and  _57
REMARK   25  A    between atoms: _59  and  _61
REMARK   26  A    between atoms: _61  and  _62
REMARK   27  A    between atoms: _65  and  _67
REMARK   28  A    between atoms: _67  and  _68
REMARK   29  A    between atoms: _67  and  _70
REMARK   30  A    between atoms: _70  and  _71
REMARK   31  A    between atoms: _74  and  _76
REMARK   32  A    between atoms: _76  and  _77
REMARK   33  A    between atoms: _76  and  _79
REMARK   34  A    between atoms: _79  and  _80
REMARK   35  A    between atoms: _83  and  _85
REMARK   36  A    between atoms: _85  and  _86
REMARK   37  A    between atoms: _85  and  _88
REMARK   38  A    between atoms: _88  and  _89
REMARK   39  A    between atoms: _92  and  _94
REMARK   40  A    between atoms: _94  and  _95
REMARK   41  A    between atoms: _94  and  _97
REMARK   42  A    between atoms: _100  and  _102
REMARK   43  A    between atoms: _102  and  _103
REMARK   44  A    between atoms: _102  and  _105
REMARK   45  A    between atoms: _105  and  _106
REMARK   46  A    between atoms: _106  and  _107
REMARK   47  A    between atoms: _107  and  _108
REMARK   48  A    between atoms: _108  and  _109
REMARK   49  A    between atoms: _113  and  _115
REMARK   50  A    between atoms: _115  and  _116
REMARK   51  A    between atoms: _115  and  _118
REMARK   52  A    between atoms: _118  and  _119
REMARK   53  A    between atoms: _119  and  _120
REMARK   54  A    between atoms: _122  and  _124
REMARK   55  A    between atoms: _124  and  _125
REMARK   56  A    between atoms: _124  and  _127
REMARK   57  A    between atoms: _127  and  _128
REMARK   58  A    between atoms: _131  and  _133
REMARK   59  A    between atoms: _133  and  _134
REMARK   60  A    between atoms: _136  and  _138
REMARK   61  A    between atoms: _138  and  _139
REMARK   62  A    between atoms: _141  and  _143
REMARK   63  A    between atoms: _143  and  _144
REMARK   64  A    between atoms: _143  and  _146
REMARK   65  A    between atoms: _146  and  _147
REMARK   66  A    between atoms: _150  and  _152
REMARK   67  A    between atoms: _152  and  _153
REMARK   68  A    between atoms: _155  and  _157
REMARK   69  A    between atoms: _157  and  _158
REMARK   70  A    between atoms: _160  and  _162
REMARK   71  A    between atoms: _162  and  _163
REMARK   72  A    between atoms: _162  and  _165
REMARK   73  A    between atoms: _165  and  _166
REMARK   74  A    between atoms: _172  and  _174
REMARK   75  A    between atoms: _174  and  _175
REMARK   76  A    between atoms: _174  and  _177
REMARK   77  A    between atoms: _177  and  _178
REMARK   78  A    between atoms: _181  and  _183
REMARK   79  A    between atoms: _183  and  _184
REMARK   80  A    between atoms: _183  and  _186
REMARK   81  A    between atoms: _189  and  _191
REMARK   82  A    between atoms: _191  and  _192
REMARK   83  A    between atoms: _191  and  _194
REMARK   84  A    between atoms: _194  and  _195
REMARK   85  A    between atoms: _199  and  _200
REMARK   86  A    between atoms: _205  and  _207
REMARK   87  A    between atoms: _207  and  _208
REMARK   88  A    between atoms: _207  and  _210
REMARK   89  A    between atoms: _210  and  _211
REMARK   90  A    between atoms: _215  and  _216
REMARK   91  A    between atoms: _221  and  _223
REMARK   92  A    between atoms: _223  and  _224
REMARK   93  A    between atoms: _227  and  _229
REMARK   94  A    between atoms: _229  and  _230
REMARK   95  A    between atoms: _229  and  _232
REMARK   96  A    between atoms: _232  and  _233
REMARK   97  A    between atoms: _238  and  _240
REMARK   98  A    between atoms: _240  and  _241
REMARK   99  A    between atoms: _240  and  _243
REMARK  100  A    between atoms: _243  and  _244
REMARK  101  A    between atoms: _247  and  _249
REMARK  102  A    between atoms: _249  and  _250
REMARK  103  A    between atoms: _249  and  _252
REMARK  104  A    between atoms: _252  and  _253
REMARK  105  A    between atoms: _256  and  _258
REMARK  106  A    between atoms: _258  and  _259
REMARK  107  A    between atoms: _261  and  _263
REMARK  108  A    between atoms: _263  and  _264
REMARK  109  A    between atoms: _263  and  _266
REMARK  110  A    between atoms: _266  and  _267
REMARK  111  A    between atoms: _267  and  _268
REMARK  112  A    between atoms: _268  and  _269
REMARK  113  A    between atoms: _278  and  _280
REMARK  114  A    between atoms: _280  and  _281
REMARK  115  A    between atoms: _280  and  _283
REMARK  116  A    between atoms: _283  and  _284
REMARK  117  A    between atoms: _289  and  _291
REMARK  118  A    between atoms: _291  and  _292
REMARK  119  A    between atoms: _291  and  _294
REMARK  120  A    between atoms: _294  and  _295
REMARK  121  A    between atoms: _295  and  _296
REMARK  122  A    between atoms: _296  and  _297
REMARK  123  A    between atoms: _306  and  _308
REMARK  124  A    between atoms: _308  and  _309
REMARK  125  A    between atoms: _308  and  _311
REMARK  126  A    between atoms: _311  and  _312
REMARK  127  A    between atoms: _315  and  _317
REMARK  128  A    between atoms: _317  and  _318
REMARK  129  A    between atoms: _317  and  _320
REMARK  130  A    between atoms: _320  and  _321
REMARK  131  A    between atoms: _324  and  _326
REMARK  132  A    between atoms: _326  and  _327
REMARK  133  A    between atoms: _326  and  _329
REMARK  134  A    between atoms: _329  and  _330
REMARK  135  A    between atoms: _333  and  _335
REMARK  136  A    between atoms: _335  and  _336
REMARK  137  A    between atoms: _335  and  _338
REMARK  138  A    between atoms: _338  and  _339
REMARK  139  A    between atoms: _342  and  _344
REMARK  140  A    between atoms: _344  and  _345
REMARK  141  A    between atoms: _347  and  _349
REMARK  142  A    between atoms: _349  and  _350
REMARK  143  A    between atoms: _353  and  _355
REMARK  144  A    between atoms: _355  and  _356
REMARK  145  A    between atoms: _355  and  _358
REMARK  146  A    between atoms: _358  and  _359
REMARK  147  A    between atoms: _362  and  _364
REMARK  148  A    between atoms: _364  and  _365
REMARK  149  A    between atoms: _364  and  _367
REMARK  150  A    between atoms: _367  and  _368
REMARK  151  A    between atoms: _371  and  _373
REMARK  152  A    between atoms: _373  and  _374
REMARK  153  A    between atoms: _373  and  _376
REMARK  154  A    between atoms: _376  and  _377
REMARK  155  A    between atoms: _380  and  _382
REMARK  156  A    between atoms: _382  and  _383
REMARK  157  A    between atoms: _382  and  _385
REMARK  158  A    between atoms: _388  and  _390
REMARK  159  A    between atoms: _390  and  _391
REMARK  160  A    between atoms: _390  and  _393
REMARK  161  A    between atoms: _393  and  _394
REMARK  162  A    between atoms: _394  and  _395
REMARK  163  A    between atoms: _397  and  _399
REMARK  164  A    between atoms: _399  and  _400
REMARK  165  A    between atoms: _399  and  _402
REMARK  166  A    between atoms: _402  and  _403
REMARK  167  A    between atoms: _406  and  _408
REMARK  168  A    between atoms: _408  and  _409
REMARK  169  A    between atoms: _411  and  _413
REMARK  170  A    between atoms: _413  and  _414
REMARK  171  A    between atoms: _416  and  _418
REMARK  172  A    between atoms: _418  and  _419
REMARK  173  A    between atoms: _418  and  _421
REMARK  174  A    between atoms: _421  and  _422
REMARK  175  A    between atoms: _425  and  _427
REMARK  176  A    between atoms: _427  and  _428
REMARK  177  A    between atoms: _430  and  _432
REMARK  178  A    between atoms: _432  and  _433
REMARK  179  A    between atoms: _435  and  _437
REMARK  180  A    between atoms: _437  and  _438
REMARK  181  A    between atoms: _437  and  _440
REMARK  182  A    between atoms: _440  and  _441
REMARK  183  A    between atoms: _447  and  _449
REMARK  184  A    between atoms: _449  and  _450
REMARK  185  A    between atoms: _449  and  _452
REMARK  186  A    between atoms: _452  and  _453
REMARK  187  A    between atoms: _456  and  _458
REMARK  188  A    between atoms: _458  and  _459
REMARK  189  A    between atoms: _458  and  _461
REMARK  190  A    between atoms: _464  and  _466
REMARK  191  A    between atoms: _466  and  _467
REMARK  192  A    between atoms: _466  and  _469
REMARK  193  A    between atoms: _469  and  _470
REMARK  194  A    between atoms: _473  and  _475
REMARK  195  A    between atoms: _475  and  _476
REMARK  196  A    between atoms: _475  and  _478
REMARK  197  A    between atoms: _478  and  _479
REMARK  198  A    between atoms: _483  and  _484
REMARK  199  A    between atoms: _489  and  _491
REMARK  200  A    between atoms: _491  and  _492
REMARK  201  A    between atoms: _495  and  _497
REMARK  202  A    between atoms: _497  and  _498
REMARK  203  A    between atoms: _497  and  _500
REMARK  204  A    between atoms: _500  and  _501
REMARK  205  A    between atoms: _506  and  _508
REMARK  206  A    between atoms: _508  and  _509
REMARK  207  A    between atoms: _508  and  _511
REMARK  208  A    between atoms: _511  and  _512
REMARK  209  A    between atoms: _515  and  _517
REMARK  210  A    between atoms: _517  and  _518
REMARK  211  A    between atoms: _517  and  _520
REMARK  212  A    between atoms: _520  and  _521
REMARK  213  A    between atoms: _524  and  _526
REMARK  214  A    between atoms: _526  and  _527
REMARK  215  A    between atoms: _529  and  _531
REMARK  216  A    between atoms: _531  and  _532
REMARK  217  A    between atoms: _531  and  _534
REMARK  218  A    between atoms: _534  and  _535
REMARK  219  A    between atoms: _535  and  _536
REMARK  220  A    between atoms: _536  and  _537
REMARK  221  A    between atoms: _546  and  _548
REMARK  222  A    between atoms: _548  and  _549
REMARK  223  A    between atoms: _548  and  _551
REMARK  224  A    between atoms: _551  and  _552
REMARK                            x       y       z     vdW  Elec       q    Type
REMARK                         _______ _______ _______ _____ _____    ______ ____
ROOT
ATOM      1  CA  LEU A   1       7.107  35.662  16.484  0.00  0.00    +0.133 C 
ENDROOT
BRANCH   1   2
ATOM      2  N   LEU A   1       6.892  34.905  17.711  0.00  0.00    -0.239 NA
ATOM      3  H   LEU A   1       7.609  34.197  17.969  0.00  0.00    +0.142 HD
ENDBRANCH   1   2
BRANCH   1   4
ATOM      4  C   LEU A   1       6.757  34.774  15.302  0.00  0.00    +0.224 C 
ATOM      5  O   LEU A   1       7.193  33.634  15.259  0.00  0.00    -0.287 OA
ENDBRANCH   1   4
BRANCH   1   6
ATOM      6  CB  LEU A   1       8.547  36.118  16.406  0.00  0.00    +0.025 C 
BRANCH   6   7
ATOM      7  CG  LEU A   1       9.092  36.804  17.663  0.00  0.00    +0.002 C 
ATOM      8  CD2 LEU A   1       8.204  37.975  18.098  0.00  0.00    +0.000 C 
ATOM      9  CD1 LEU A   1      10.505  37.246  17.426  0.00  0.00    +0.000 C 
ENDBRANCH   6   7
ENDBRANCH   1   6
TORSDOF 4
REMARK  Name = ../refined-set-2016/2nmz/2nmz_pocket.pdb
REMARK  224 active torsions:
REMARK  status: ('A' for Active; 'I' for Inactive)
REMARK    1  A    between atoms: _1  and  _3
REMARK    2  A    between atoms: _3  and  _4
REMARK    3  A    between atoms: _3  and  _6
REMARK    4  A    between atoms: _6  and  _7
REMARK    5  A    between atoms: _7  and  _8
REMARK    6  A    between atoms: _8  and  _9
REMARK    7  A    between atoms: _18  and  _20
REMARK    8  A    between atoms: _20  and  _21
REMARK    9  A    between atoms: _20  and  _23
REMARK   10  A    between atoms: _23  and  _24
REMARK   11  A    between atoms: _27  and  _29
REMARK   12  A    between atoms: _29  and  _30
REMARK   13  A    between atoms: _29  and  _32
REMARK   14  A    between atoms: _32  and  _33
REMARK   15  A    between atoms: _36  and  _38
REMARK   16  A    between atoms: _38  and  _39
REMARK   17  A    between atoms: _38  and  _41
REMARK   18  A    between atoms: _41  and  _42
REMARK   19  A    between atoms: _45  and  _47
REMARK   20  A    between atoms: _47  and  _48
REMARK   21  A    between atoms: _47  and  _50
REMARK   22  A    between atoms: _50  and  _51
REMARK   23  A    between atoms: _54  and  _56
REMARK   24  A    between atoms: _56  and  _57
REMARK   25  A    between atoms: _59  and  _61
REMARK   26  A    between atoms: _61  and  _62
REMARK   27  A    between atoms: _65  and  _67
REMARK   28  A    between atoms: _67  and  _68
REMARK   29  A    between atoms: _67  and  _70
REMARK   30  A    between atoms: _70  and  _71
REMARK   31  A    between atoms: _74  and  _76
REMARK   32  A    between atoms: _76  and  _77
REMARK   33  A    between atoms: _76  and  _79
REMARK   34  A    between atoms: _79  and  _80
REMARK   35  A    between atoms: _83  and  _85
REMARK   36  A    between atoms: _85  and  _86
REMARK   37  A    between atoms: _85  and  _88
REMARK   38  A    between atoms: _88  and  _89
REMARK   39  A    between atoms: _92  and  _94
REMARK   40  A    between atoms: _94  and  _95
REMARK   41  A    between atoms: _94  and  _97
REMARK   42  A    between atoms: _100  and  _102
REMARK   43  A    between atoms: _102  and  _103
REMARK   44  A    between atoms: _102  and  _105
REMARK   45  A    between atoms: _105  and  _106
REMARK   46  A    between atoms: _106  and  _107
REMARK   47  A    between atoms: _107  and  _108
REMARK   48  A    between atoms: _108  and  _109
REMARK   49  A    between atoms: _113  and  _115
REMARK   50  A    between atoms: _115  and  _116
REMARK   51  A    between atoms: _115  and  _118
REMARK   52  A    between atoms: _118  and  _119
REMARK   53  A    between atoms: _119  and  _120
REMARK   54  A    between atoms: _122  and  _124
REMARK   55  A    between atoms: _124  and  _125
REMARK   56  A    between atoms: _124  and  _127
REMARK   57  A    between atoms: _127  and  _128
REMARK   58  A    between atoms: _131  and  _133
REMARK   59  A    between atoms: _133  and  _134
REMARK   60  A    between atoms: _136  and  _138
REMARK   61  A    between atoms: _138  and  _139
REMARK   62  A    between atoms: _141  and  _143
REMARK   63  A    between atoms: _143  and  _144
REMARK   64  A    between atoms: _143  and  _146
REMARK   65  A    between atoms: _146  and  _147
REMARK   66  A    between atoms: _150  and  _152
REMARK   67  A    between atoms: _152  and  _153
REMARK   68  A    between atoms: _155  and  _157
REMARK   69  A    between atoms: _157  and  _158
REMARK   70  A    between atoms: _160  and  _162
REMARK   71  A    between atoms: _162  and  _163
REMARK   72  A    between atoms: _162  and  _165
REMARK   73  A    between atoms: _165  and  _166
REMARK   74  A    between atoms: _172  and  _174
REMARK   75  A    between atoms: _174  and  _175
REMARK   76  A    between atoms: _174  and  _177
REMARK   77  A    between atoms: _177  and  _178
REMARK   78  A    between atoms: _181  and  _183
REMARK   79  A    between atoms: _183  and  _184
REMARK   80  A    between atoms: _183  and  _186
REMARK   81  A    between atoms: _189  and  _191
REMARK   82  A    between atoms: _191  and  _192
REMARK   83  A    between atoms: _191  and  _194
REMARK   84  A    between atoms: _194  and  _195
REMARK   85  A    between atoms: _199  and  _200
REMARK   86  A    between atoms: _205  and  _207
REMARK   87  A    between atoms: _207  and  _208
REMARK   88  A    between atoms: _207  and  _210
REMARK   89  A    between atoms: _210  and  _211
REMARK   90  A    between atoms: _215  and  _216
REMARK   91  A    between atoms: _221  and  _223
REMARK   92  A    between atoms: _223  and  _224
REMARK   93  A    between atoms: _227  and  _229
REMARK   94  A    between atoms: _229  and  _230
REMARK   95  A    between atoms: _229  and  _232
REMARK   96  A    between atoms: _232  and  _233
REMARK   97  A    between atoms: _238  and  _240
REMARK   98  A    between atoms: _240  and  _241
REMARK   99  A    between atoms: _240  and  _243
REMARK  100  A    between atoms: _243  and  _244
REMARK  101  A    between atoms: _247  and  _249
REMARK  102  A    between atoms: _249  and  _250
REMARK  103  A    between atoms: _249  and  _252
REMARK  104  A    between atoms: _252  and  _253
REMARK  105  A    between atoms: _256  and  _258
REMARK  106  A    between atoms: _258  and  _259
REMARK  107  A    between atoms: _261  and  _263
REMARK  108  A    between atoms: _263  and  _264
REMARK  109  A    between atoms: _263  and  _266
REMARK  110  A    between atoms: _266  and  _267
REMARK  111  A    between atoms: _267  and  _268
REMARK  112  A    between atoms: _268  and  _269
REMARK  113  A    between atoms: _278  and  _280
REMARK  114  A    between atoms: _280  and  _281
REMARK  115  A    between atoms: _280  and  _283
REMARK  116  A    between atoms: _283  and  _284
REMARK  117  A    between atoms: _289  and  _291
REMARK  118  A    between atoms: _291  and  _292
REMARK  119  A    between atoms: _291  and  _294
REMARK  120  A    between atoms: _294  and  _295
REMARK  121  A    between atoms: _295  and  _296
REMARK  122  A    between atoms: _296  and  _297
REMARK  123  A    between atoms: _306  and  _308
REMARK  124  A    between atoms: _308  and  _309
REMARK  125  A    between atoms: _308  and  _311
REMARK  126  A    between atoms: _311  and  _312
REMARK  127  A    between atoms: _315  and  _317
REMARK  128  A    between atoms: _317  and  _318
REMARK  129  A    between atoms: _317  and  _320
REMARK  130  A    between atoms: _320  and  _321
REMARK  131  A    between atoms: _324  and  _326
REMARK  132  A    between atoms: _326  and  _327
REMARK  133  A    between atoms: _326  and  _329
REMARK  134  A    between atoms: _329  and  _330
REMARK  135  A    between atoms: _333  and  _335
REMARK  136  A    between atoms: _335  and  _336
REMARK  137  A    between atoms: _335  and  _338
REMARK  138  A    between atoms: _338  and  _339
REMARK  139  A    between atoms: _342  and  _344
REMARK  140  A    between atoms: _344  and  _345
REMARK  141  A    between atoms: _347  and  _349
REMARK  142  A    between atoms: _349  and  _350
REMARK  143  A    between atoms: _353  and  _355
REMARK  144  A    between atoms: _355  and  _356
REMARK  145  A    between atoms: _355  and  _358
REMARK  146  A    between atoms: _358  and  _359
REMARK  147  A    between atoms: _362  and  _364
REMARK  148  A    between atoms: _364  and  _365
REMARK  149  A    between atoms: _364  and  _367
REMARK  150  A    between atoms: _367  and  _368
REMARK  151  A    between atoms: _371  and  _373
REMARK  152  A    between atoms: _373  and  _374
REMARK  153  A    between atoms: _373  and  _376
REMARK  154  A    between atoms: _376  and  _377
REMARK  155  A    between atoms: _380  and  _382
REMARK  156  A    between atoms: _382  and  _383
REMARK  157  A    between atoms: _382  and  _385
REMARK  158  A    between atoms: _388  and  _390
REMARK  159  A    between atoms: _390  and  _391
REMARK  160  A    between atoms: _390  and  _393
REMARK  161  A    between atoms: _393  and  _394
REMARK  162  A    between atoms: _394  and  _395
REMARK  163  A    between atoms: _397  and  _399
REMARK  164  A    between atoms: _399  and  _400
REMARK  165  A    between atoms: _399  and  _402
REMARK  166  A    between atoms: _402  and  _403
REMARK  167  A    between atoms: _406  and  _408
REMARK  168  A    between atoms: _408  and  _409
REMARK  169  A    between atoms: _411  and  _413
REMARK  170  A    between atoms: _413  and  _414
REMARK  171  A    between atoms: _416  and  _418
REMARK  172  A    between atoms: _418  and  _419
REMARK  173  A    between atoms: _418  and  _421
REMARK  174  A    between atoms: _421  and  _422
REMARK  175  A    between atoms: _425  and  _427
REMARK  176  A    between atoms: _427  and  _428
REMARK  177  A    between atoms: _430  and  _432
REMARK  178  A    between atoms: _432  and  _433
REMARK  179  A    between atoms: _435  and  _437
REMARK  180  A    between atoms: _437  and  _438
REMARK  181  A    between atoms: _437  and  _440
REMARK  182  A    between atoms: _440  and  _441
REMARK  183  A    between atoms: _447  and  _449
REMARK  184  A    between atoms: _449  and  _450
REMARK  185  A    between atoms: _449  and  _452
REMARK  186  A    between atoms: _452  and  _453
REMARK  187  A    between atoms: _456  and  _458
REMARK  188  A    between atoms: _458  and  _459
REMARK  189  A    between atoms: _458  and  _461
REMARK  190  A    between atoms: _464  and  _466
REMARK  191  A    between atoms: _466  and  _467
REMARK  192  A    between atoms: _466  and  _469
REMARK  193  A    between atoms: _469  and  _470
REMARK  194  A    between atoms: _473  and  _475
REMARK  195  A    between atoms: _475  and  _476
REMARK  196  A    between atoms: _475  and  _478
REMARK  197  A    between atoms: _478  and  _479
REMARK  198  A    between atoms: _483  and  _484
REMARK  199  A    between atoms: _489  and  _491
REMARK  200  A    between atoms: _491  and  _492
REMARK  201  A    between atoms: _495  and  _497
REMARK  202  A    between atoms: _497  and  _498
REMARK  203  A    between atoms: _497  and  _500
REMARK  204  A    between atoms: _500  and  _501
REMARK  205  A    between atoms: _506  and  _508
REMARK  206  A    between atoms: _508  and  _509
REMARK  207  A    between atoms: _508  and  _511
REMARK  208  A    between atoms: _511  and  _512
REMARK  209  A    between atoms: _515  and  _517
REMARK  210  A    between atoms: _517  and  _518
REMARK  211  A    between atoms: _517  and  _520
REMARK  212  A    between atoms: _520  and  _521
REMARK  213  A    between atoms: _524  and  _526
REMARK  214  A    between atoms: _526  and  _527
REMARK  215  A    between atoms: _529  and  _531
REMARK  216  A    between atoms: _531  and  _532
REMARK  217  A    between atoms: _531  and  _534
REMARK  218  A    between atoms: _534  and  _535
REMARK  219  A    between atoms: _535  and  _536
REMARK  220  A    between atoms: _536  and  _537
REMARK  221  A    between atoms: _546  and  _548
REMARK  222  A    between atoms: _548  and  _549
REMARK  223  A    between atoms: _548  and  _551
REMARK  224  A    between atoms: _551  and  _552
REMARK                            x       y       z     vdW  Elec       q    Type
REMARK                         _______ _______ _______ _____ _____    ______ ____
ROOT
ATOM      1  CA  ILE A   6      12.465  27.515  16.833  0.00  0.00    +0.149 C 
ENDROOT
BRANCH   1   2
ATOM      2  C   ILE A   6      11.852  27.962  18.159  0.00  0.00    +0.241 C 
ATOM      3  N   ILE A   7      12.128  27.150  19.208  0.00  0.00    -0.297 N 
ATOM      4  H   ILE A   7      12.606  26.244  19.027  0.00  0.00    +0.150 HD
ATOM      5  O   ILE A   6      11.155  28.955  18.242  0.00  0.00    -0.273 OA
BRANCH   3   6
ATOM      6  CA  ILE A   7      11.781  27.496  20.579  0.00  0.00    +0.149 C 
BRANCH   6   7
ATOM      7  C   ILE A   7      13.001  28.086  21.235  0.00  0.00    +0.241 C 
ATOM      8  N   GLY A   8      12.939  29.385  21.519  0.00  0.00    -0.295 N 
ATOM      9  H   GLY A   8      12.061  29.902  21.313  0.00  0.00    +0.150 HD
ATOM     10  O   ILE A   7      13.991  27.405  21.448  0.00  0.00    -0.273 OA
BRANCH   8  11
ATOM     11  CA  GLY A   8      14.035  30.093  22.096  0.00  0.00    +0.176 C 
BRANCH  11  12
ATOM     12  C   GLY A   8      13.920  30.222  23.615  0.00  0.00    +0.243 C 
ATOM     13  O   GLY A   8      13.053  29.686  24.264  0.00  0.00    -0.273 OA
ATOM     14  N   ARG A   9      14.887  30.983  24.181  0.00  0.00    -0.297 N 
ATOM     15  H   ARG A   9      15.505  31.574  23.590  0.00  0.00    +0.150 HD
BRANCH  14  16
ATOM     16  CA  ARG A   9      15.049  30.963  25.622  0.00  0.00    +0.149 C 
BRANCH  16  17
ATOM     17  C   ARG A   9      13.850  31.541  26.357  0.00  0.00    +0.241 C 
ATOM     18  O   ARG A   9      13.639  31.162  27.527  0.00  0.00    -0.273 OA
ATOM     19  N   ASN A  10      13.102  32.444  25.734  0.00  0.00    -0.298 N 
ATOM     20  H   ASN A  10      13.346  32.758  24.773  0.00  0.00    +0.150 HD
BRANCH  19  21
ATOM     21  CA  ASN A  10      11.935  32.990  26.413  0.00  0.00    +0.146 C 
BRANCH  21  22
ATOM     22  C   ASN A  10      10.957  31.898  26.843  0.00  0.00    +0.227 C 
ATOM     23  O   ASN A  10      10.270  32.085  27.846  0.00  0.00    -0.286 OA
ENDBRANCH  21  22
BRANCH  21  24
ATOM     24  CB  ASN A  10      11.226  34.038  25.555  0.00  0.00    +0.112 C 
BRANCH  24  25
ATOM     25  CG  ASN A  10      10.542  33.447  24.340  0.00  0.00    +0.222 C 
ATOM     26  ND2 ASN A  10       9.257  33.787  24.197  0.00  0.00    -0.329 N 
ATOM     27 HD21 ASN A  10       8.807  34.420  24.888  0.00  0.00    +0.145 HD
ATOM     28 HD22 ASN A  10       8.708  33.418  23.394  0.00  0.00    +0.145 HD
ATOM     29  OD1 ASN A  10      11.135  32.703  23.559  0.00  0.00    -0.275 OA
ENDBRANCH  24  25
ENDBRANCH  21  24
ENDBRANCH  19  21
ENDBRANCH  16  17
BRANCH  16  30
ATOM     30  CB  ARG A   9      16.323  31.738  26.017  0.00  0.00    +0.033 C 
BRANCH  30  31
ATOM     31  CG  ARG A   9      17.597  31.038  25.531  0.00  0.00    +0.045 C 
BRANCH  31  32
ATOM     32  CD  ARG A   9      18.879  31.718  26.058  0.00  0.00    +0.174 C 
BRANCH  32  33
ATOM     33  NE  ARG A   9      18.987  33.101  25.624  0.00  0.00    -0.265 N 
ATOM     34  CZ  ARG A   9      18.605  34.188  26.263  0.00  0.00    +0.342 C 
ATOM     35  NH2 ARG A   9      18.153  34.162  27.523  0.00  0.00    -0.292 N 
ATOM     36 HH21 ARG A   9      18.093  33.259  28.035  0.00  0.00    +0.255 HD
ATOM     37 HH22 ARG A   9      17.862  35.045  27.989  0.00  0.00    +0.255 HD
ATOM     38  NH1 ARG A   9      18.681  35.373  25.636  0.00  0.00    -0.292 N 
ATOM     39 HH11 ARG A   9      18.383  36.241  26.126  0.00  0.00    +0.255 HD
ATOM     40 HH12 ARG A   9      19.037  35.423  24.660  0.00  0.00    +0.255 HD
ATOM     41  HE  ARG A   9      19.421  33.252  24.691  0.00  0.00    +0.259 HD
ENDBRANCH  32  33
ENDBRANCH  31  32
ENDBRANCH  30  31
ENDBRANCH  16  30
ENDBRANCH  14  16
ENDBRANCH  11  12
ENDBRANCH   8  11
ENDBRANCH   6   7
BRANCH   6  42
ATOM     42  CB  ILE A   7      11.289  26.271  21.363  0.00  0.00    +0.027 C 
ATOM     43  CG2 ILE A   7      10.878  26.702  22.772  0.00  0.00    +0.002 C 
BRANCH  42  44
ATOM     44  CG1 ILE A   7      10.180  25.512  20.631  0.00  0.00    +0.002 C 
ATOM     45  CD1 ILE A   7       8.983  26.370  20.271  0.00  0.00    +0.000 C 
ENDBRANCH  42  44
ENDBRANCH   6  42
ENDBRANCH   3   6
ENDBRANCH   1   2
BRANCH   1  47
ATOM     46  C   ASN A   5      11.197  26.402  15.079  0.00  0.00    +0.241 C 
ATOM     47  N   ILE A   6      11.407  27.467  15.824  0.00  0.00    -0.297 N 
ATOM     48  H   ILE A   6      10.801  28.301  15.691  0.00  0.00    +0.150 HD
ATOM     49  O   ASN A   5      11.821  25.313  15.220  0.00  0.00    -0.273 OA
BRANCH  46  50
ATOM     50  CA  ASN A   5      10.119  26.510  13.997  0.00  0.00    +0.158 C 
BRANCH  50  52
ATOM     51  C   ALA A   4      11.553  26.863  12.147  0.00  0.00    +0.241 C 
ATOM     52  N   ASN A   5      10.724  26.033  12.786  0.00  0.00    -0.297 N 
ATOM     53  H   ASN A   5      10.525  25.080  12.421  0.00  0.00    +0.150 HD
ATOM     54  O   ALA A   4      11.706  28.061  12.373  0.00  0.00    -0.273 OA
BRANCH  51  55
ATOM     55  CA  ALA A   4      12.368  26.119  11.091  0.00  0.00    +0.149 C 
ATOM     56  CB  ALA A   4      13.712  25.674  11.652  0.00  0.00    +0.031 C 
BRANCH  55  58
ATOM     57  C   PRO A   3      12.479  26.579   8.701  0.00  0.00    +0.241 C 
ATOM     58  N   ALA A   4      12.487  27.001   9.969  0.00  0.00    -0.297 N 
ATOM     59  H   ALA A   4      12.584  28.020  10.150  0.00  0.00    +0.150 HD
ATOM     60  O   PRO A   3      12.305  25.404   8.396  0.00  0.00    -0.273 OA
BRANCH  57  67
ATOM     61  C   THR A   2      11.418  29.637   8.330  0.00  0.00    +0.246 C 
ATOM     62  O   THR A   2      10.368  29.038   8.136  0.00  0.00    -0.273 OA
ATOM     63  N   PRO A   3      12.598  29.021   8.118  0.00  0.00    -0.272 N 
ATOM     64  CD  PRO A   3      13.931  29.601   8.299  0.00  0.00    +0.094 C 
ATOM     65  CG  PRO A   3      14.863  28.477   7.965  0.00  0.00    +0.024 C 
ATOM     66  CB  PRO A   3      14.111  27.532   7.127  0.00  0.00    +0.031 C 
ATOM     67  CA  PRO A   3      12.655  27.647   7.645  0.00  0.00    +0.152 C 
BRANCH  61  68
ATOM     68  CA  THR A   2      11.412  31.053   8.891  0.00  0.00    +0.176 C 
BRANCH  68  70
ATOM     69  C   PRO A   1      10.357  32.720   7.391  0.00  0.00    +0.239 C 
ATOM     70  N   THR A   2      10.292  31.799   8.342  0.00  0.00    -0.295 N 
ATOM     71  H   THR A   2       9.351  31.591   8.732  0.00  0.00    +0.150 HD
ATOM     72  O   PRO A   1      11.380  33.080   6.799  0.00  0.00    -0.274 OA
BRANCH  69  77
ATOM     73  N   PRO A   1       8.391  34.202   7.997  0.00  0.00    -0.210 NA
ATOM     74  CD  PRO A   1       8.668  35.578   7.574  0.00  0.00    +0.089 C 
ATOM     75  CG  PRO A   1       9.352  35.484   6.234  0.00  0.00    +0.021 C 
ATOM     76  CB  PRO A   1       9.036  34.113   5.740  0.00  0.00    +0.028 C 
ATOM     77  CA  PRO A   1       8.974  33.258   7.033  0.00  0.00    +0.149 C 
ENDBRANCH  69  77
ENDBRANCH  68  70
BRANCH  68  78
ATOM     78  CB  THR A   2      11.388  31.035  10.444  0.00  0.00    +0.137 C 
ATOM     79  CG2 THR A   2      10.086  30.599  11.092  0.00  0.00    +0.034 C 
BRANCH  78  80
ATOM     80  OG1 THR A   2      12.425  30.113  10.854  0.00  0.00    -0.382 OA
ATOM     81  HG1 THR A   2      12.451  30.065  11.843  0.00  0.00    +0.210 HD
ENDBRANCH  78  80
ENDBRANCH  68  78
ENDBRANCH  61  68
ENDBRANCH  57  67
ENDBRANCH  55  58
ENDBRANCH  51  55
ENDBRANCH  50  52
BRANCH  50  82
ATOM     82  CB  ASN A   5       8.971  25.593  14.358  0.00  0.00    +0.114 C 
BRANCH  82  83
ATOM     83  CG  ASN A   5       7.824  25.646  13.341  0.00  0.00    +0.222 C 
ATOM     84  ND2 ASN A   5       7.323  24.513  12.976  0.00  0.00    -0.329 N 
ATOM     85 HD21 ASN A   5       7.678  23.629  13.393  0.00  0.00    +0.145 HD
ATOM     86 HD22 ASN A   5       6.565  24.485  12.265  0.00  0.00    +0.145 HD
ATOM     87  OD1 ASN A   5       7.455  26.738  12.891  0.00  0.00    -0.275 OA
ENDBRANCH  82  83
ENDBRANCH  50  82
ENDBRANCH  46  50
ENDBRANCH   1  47
BRANCH   1  88
ATOM     88  CB  ILE A   6      13.755  28.272  16.501  0.00  0.00    +0.027 C 
ATOM     89  CG2 ILE A   6      14.335  27.720  15.205  0.00  0.00    +0.002 C 
BRANCH  88  90
ATOM     90  CG1 ILE A   6      13.525  29.765  16.521  0.00  0.00    +0.002 C 
ATOM     91  CD1 ILE A   6      14.707  30.605  16.140  0.00  0.00    +0.000 C 
ENDBRANCH  88  90
ENDBRANCH   1  88
TORSDOF 32
REMARK  Name = ../refined-set-2016/2nmz/2nmz_pocket.pdb
REMARK  224 active torsions:
REMARK  status: ('A' for Active; 'I' for Inactive)
REMARK    1  A    between atoms: _1  and  _3
REMARK    2  A    between atoms: _3  and  _4
REMARK    3  A    between atoms: _3  and  _6
REMARK    4  A    between atoms: _6  and  _7
REMARK    5  A    between atoms: _7  and  _8
REMARK    6  A    between atoms: _8  and  _9
REMARK    7  A    between atoms: _18  and  _20
REMARK    8  A    between atoms: _20  and  _21
REMARK    9  A    between atoms: _20  and  _23
REMARK   10  A    between atoms: _23  and  _24
REMARK   11  A    between atoms: _27  and  _29
REMARK   12  A    between atoms: _29  and  _30
REMARK   13  A    between atoms: _29  and  _32
REMARK   14  A    between atoms: _32  and  _33
REMARK   15  A    between atoms: _36  and  _38
REMARK   16  A    between atoms: _38  and  _39
REMARK   17  A    between atoms: _38  and  _41
REMARK   18  A    between atoms: _41  and  _42
REMARK   19  A    between atoms: _45  and  _47
REMARK   20  A    between atoms: _47  and  _48
REMARK   21  A    between atoms: _47  and  _50
REMARK   22  A    between atoms: _50  and  _51
REMARK   23  A    between atoms: _54  and  _56
REMARK   24  A    between atoms: _56  and  _57
REMARK   25  A    between atoms: _59  and  _61
REMARK   26  A    between atoms: _61  and  _62
REMARK   27  A    between atoms: _65  and  _67
REMARK   28  A    between atoms: _67  and  _68
REMARK   29  A    between atoms: _67  and  _70
REMARK   30  A    between atoms: _70  and  _71
REMARK   31  A    between atoms: _74  and  _76
REMARK   32  A    between atoms: _76  and  _77
REMARK   33  A    between atoms: _76  and  _79
REMARK   34  A    between atoms: _79  and  _80
REMARK   35  A    between atoms: _83  and  _85
REMARK   36  A    between atoms: _85  and  _86
REMARK   37  A    between atoms: _85  and  _88
REMARK   38  A    between atoms: _88  and  _89
REMARK   39  A    between atoms: _92  and  _94
REMARK   40  A    between atoms: _94  and  _95
REMARK   41  A    between atoms: _94  and  _97
REMARK   42  A    between atoms: _100  and  _102
REMARK   43  A    between atoms: _102  and  _103
REMARK   44  A    between atoms: _102  and  _105
REMARK   45  A    between atoms: _105  and  _106
REMARK   46  A    between atoms: _106  and  _107
REMARK   47  A    between atoms: _107  and  _108
REMARK   48  A    between atoms: _108  and  _109
REMARK   49  A    between atoms: _113  and  _115
REMARK   50  A    between atoms: _115  and  _116
REMARK   51  A    between atoms: _115  and  _118
REMARK   52  A    between atoms: _118  and  _119
REMARK   53  A    between atoms: _119  and  _120
REMARK   54  A    between atoms: _122  and  _124
REMARK   55  A    between atoms: _124  and  _125
REMARK   56  A    between atoms: _124  and  _127
REMARK   57  A    between atoms: _127  and  _128
REMARK   58  A    between atoms: _131  and  _133
REMARK   59  A    between atoms: _133  and  _134
REMARK   60  A    between atoms: _136  and  _138
REMARK   61  A    between atoms: _138  and  _139
REMARK   62  A    between atoms: _141  and  _143
REMARK   63  A    between atoms: _143  and  _144
REMARK   64  A    between atoms: _143  and  _146
REMARK   65  A    between atoms: _146  and  _147
REMARK   66  A    between atoms: _150  and  _152
REMARK   67  A    between atoms: _152  and  _153
REMARK   68  A    between atoms: _155  and  _157
REMARK   69  A    between atoms: _157  and  _158
REMARK   70  A    between atoms: _160  and  _162
REMARK   71  A    between atoms: _162  and  _163
REMARK   72  A    between atoms: _162  and  _165
REMARK   73  A    between atoms: _165  and  _166
REMARK   74  A    between atoms: _172  and  _174
REMARK   75  A    between atoms: _174  and  _175
REMARK   76  A    between atoms: _174  and  _177
REMARK   77  A    between atoms: _177  and  _178
REMARK   78  A    between atoms: _181  and  _183
REMARK   79  A    between atoms: _183  and  _184
REMARK   80  A    between atoms: _183  and  _186
REMARK   81  A    between atoms: _189  and  _191
REMARK   82  A    between atoms: _191  and  _192
REMARK   83  A    between atoms: _191  and  _194
REMARK   84  A    between atoms: _194  and  _195
REMARK   85  A    between atoms: _199  and  _200
REMARK   86  A    between atoms: _205  and  _207
REMARK   87  A    between atoms: _207  and  _208
REMARK   88  A    between atoms: _207  and  _210
REMARK   89  A    between atoms: _210  and  _211
REMARK   90  A    between atoms: _215  and  _216
REMARK   91  A    between atoms: _221  and  _223
REMARK   92  A    between atoms: _223  and  _224
REMARK   93  A    between atoms: _227  and  _229
REMARK   94  A    between atoms: _229  and  _230
REMARK   95  A    between atoms: _229  and  _232
REMARK   96  A    between atoms: _232  and  _233
REMARK   97  A    between atoms: _238  and  _240
REMARK   98  A    between atoms: _240  and  _241
REMARK   99  A    between atoms: _240  and  _243
REMARK  100  A    between atoms: _243  and  _244
REMARK  101  A    between atoms: _247  and  _249
REMARK  102  A    between atoms: _249  and  _250
REMARK  103  A    between atoms: _249  and  _252
REMARK  104  A    between atoms: _252  and  _253
REMARK  105  A    between atoms: _256  and  _258
REMARK  106  A    between atoms: _258  and  _259
REMARK  107  A    between atoms: _261  and  _263
REMARK  108  A    between atoms: _263  and  _264
REMARK  109  A    between atoms: _263  and  _266
REMARK  110  A    between atoms: _266  and  _267
REMARK  111  A    between atoms: _267  and  _268
REMARK  112  A    between atoms: _268  and  _269
REMARK  113  A    between atoms: _278  and  _280
REMARK  114  A    between atoms: _280  and  _281
REMARK  115  A    between atoms: _280  and  _283
REMARK  116  A    between atoms: _283  and  _284
REMARK  117  A    between atoms: _289  and  _291
REMARK  118  A    between atoms: _291  and  _292
REMARK  119  A    between atoms: _291  and  _294
REMARK  120  A    between atoms: _294  and  _295
REMARK  121  A    between atoms: _295  and  _296
REMARK  122  A    between atoms: _296  and  _297
REMARK  123  A    between atoms: _306  and  _308
REMARK  124  A    between atoms: _308  and  _309
REMARK  125  A    between atoms: _308  and  _311
REMARK  126  A    between atoms: _311  and  _312
REMARK  127  A    between atoms: _315  and  _317
REMARK  128  A    between atoms: _317  and  _318
REMARK  129  A    between atoms: _317  and  _320
REMARK  130  A    between atoms: _320  and  _321
REMARK  131  A    between atoms: _324  and  _326
REMARK  132  A    between atoms: _326  and  _327
REMARK  133  A    between atoms: _326  and  _329
REMARK  134  A    between atoms: _329  and  _330
REMARK  135  A    between atoms: _333  and  _335
REMARK  136  A    between atoms: _335  and  _336
REMARK  137  A    between atoms: _335  and  _338
REMARK  138  A    between atoms: _338  and  _339
REMARK  139  A    between atoms: _342  and  _344
REMARK  140  A    between atoms: _344  and  _345
REMARK  141  A    between atoms: _347  and  _349
REMARK  142  A    between atoms: _349  and  _350
REMARK  143  A    between atoms: _353  and  _355
REMARK  144  A    between atoms: _355  and  _356
REMARK  145  A    between atoms: _355  and  _358
REMARK  146  A    between atoms: _358  and  _359
REMARK  147  A    between atoms: _362  and  _364
REMARK  148  A    between atoms: _364  and  _365
REMARK  149  A    between atoms: _364  and  _367
REMARK  150  A    between atoms: _367  and  _368
REMARK  151  A    between atoms: _371  and  _373
REMARK  152  A    between atoms: _373  and  _374
REMARK  153  A    between atoms: _373  and  _376
REMARK  154  A    between atoms: _376  and  _377
REMARK  155  A    between atoms: _380  and  _382
REMARK  156  A    between atoms: _382  and  _383
REMARK  157  A    between atoms: _382  and  _385
REMARK  158  A    between atoms: _388  and  _390
REMARK  159  A    between atoms: _390  and  _391
REMARK  160  A    between atoms: _390  and  _393
REMARK  161  A    between atoms: _393  and  _394
REMARK  162  A    between atoms: _394  and  _395
REMARK  163  A    between atoms: _397  and  _399
REMARK  164  A    between atoms: _399  and  _400
REMARK  165  A    between atoms: _399  and  _402
REMARK  166  A    between atoms: _402  and  _403
REMARK  167  A    between atoms: _406  and  _408
REMARK  168  A    between atoms: _408  and  _409
REMARK  169  A    between atoms: _411  and  _413
REMARK  170  A    between atoms: _413  and  _414
REMARK  171  A    between atoms: _416  and  _418
REMARK  172  A    between atoms: _418  and  _419
REMARK  173  A    between atoms: _418  and  _421
REMARK  174  A    between atoms: _421  and  _422
REMARK  175  A    between atoms: _425  and  _427
REMARK  176  A    between atoms: _427  and  _428
REMARK  177  A    between atoms: _430  and  _432
REMARK  178  A    between atoms: _432  and  _433
REMARK  179  A    between atoms: _435  and  _437
REMARK  180  A    between atoms: _437  and  _438
REMARK  181  A    between atoms: _437  and  _440
REMARK  182  A    between atoms: _440  and  _441
REMARK  183  A    between atoms: _447  and  _449
REMARK  184  A    between atoms: _449  and  _450
REMARK  185  A    between atoms: _449  and  _452
REMARK  186  A    between atoms: _452  and  _453
REMARK  187  A    between atoms: _456  and  _458
REMARK  188  A    between atoms: _458  and  _459
REMARK  189  A    between atoms: _458  and  _461
REMARK  190  A    between atoms: _464  and  _466
REMARK  191  A    between atoms: _466  and  _467
REMARK  192  A    between atoms: _466  and  _469
REMARK  193  A    between atoms: _469  and  _470
REMARK  194  A    between atoms: _473  and  _475
REMARK  195  A    between atoms: _475  and  _476
REMARK  196  A    between atoms: _475  and  _478
REMARK  197  A    between atoms: _478  and  _479
REMARK  198  A    between atoms: _483  and  _484
REMARK  199  A    between atoms: _489  and  _491
REMARK  200  A    between atoms: _491  and  _492
REMARK  201  A    between atoms: _495  and  _497
REMARK  202  A    between atoms: _497  and  _498
REMARK  203  A    between atoms: _497  and  _500
REMARK  204  A    between atoms: _500  and  _501
REMARK  205  A    between atoms: _506  and  _508
REMARK  206  A    between atoms: _508  and  _509
REMARK  207  A    between atoms: _508  and  _511
REMARK  208  A    between atoms: _511  and  _512
REMARK  209  A    between atoms: _515  and  _517
REMARK  210  A    between atoms: _517  and  _518
REMARK  211  A    between atoms: _517  and  _520
REMARK  212  A    between atoms: _520  and  _521
REMARK  213  A    between atoms: _524  and  _526
REMARK  214  A    between atoms: _526  and  _527
REMARK  215  A    between atoms: _529  and  _531
REMARK  216  A    between atoms: _531  and  _532
REMARK  217  A    between atoms: _531  and  _534
REMARK  218  A    between atoms: _534  and  _535
REMARK  219  A    between atoms: _535  and  _536
REMARK  220  A    between atoms: _536  and  _537
REMARK  221  A    between atoms: _546  and  _548
REMARK  222  A    between atoms: _548  and  _549
REMARK  223  A    between atoms: _548  and  _551
REMARK  224  A    between atoms: _551  and  _552
REMARK                            x       y       z     vdW  Elec       q    Type
REMARK                         _______ _______ _______ _____ _____    ______ ____
ROOT
ATOM      1  NE  ARG A   1      21.787  37.306  23.319  0.00  0.00    -0.265 N 
ATOM      2  HE  ARG A   1      20.818  36.935  23.241  0.00  0.00    +0.259 HD
ATOM      3  CZ  ARG A   1      22.014  38.469  22.745  0.00  0.00    +0.342 C 
ATOM      4  NH2 ARG A   1      23.249  39.002  22.810  0.00  0.00    -0.292 N 
ATOM      5 HH21 ARG A   1      24.008  38.496  23.309  0.00  0.00    +0.255 HD
ATOM      6 HH22 ARG A   1      23.443  39.920  22.361  0.00  0.00    +0.255 HD
ATOM      7  NH1 ARG A   1      21.005  39.100  22.126  0.00  0.00    -0.292 N 
ATOM      8 HH11 ARG A   1      20.058  38.670  22.104  0.00  0.00    +0.255 HD
ATOM      9 HH12 ARG A   1      21.169  40.019  21.668  0.00  0.00    +0.255 HD
ENDROOT
BRANCH   1  10
ATOM     10  CD  ARG A   1      22.729  36.486  24.044  0.00  0.00    +0.174 C 
BRANCH  10  11
ATOM     11  CG  ARG A   1      22.082  35.551  25.042  0.00  0.00    +0.045 C 
BRANCH  11  12
ATOM     12  CB  ARG A   1      23.088  34.774  25.857  0.00  0.00    +0.029 C 
BRANCH  12  13
ATOM     13  CA  ARG A   1      22.471  33.813  26.846  0.00  0.00    +0.133 C 
BRANCH  13  14
ATOM     14  N   ARG A   1      21.819  34.560  27.929  0.00  0.00    -0.239 NA
ATOM     15  H   ARG A   1      21.838  35.600  27.934  0.00  0.00    +0.142 HD
ENDBRANCH  13  14
BRANCH  13  16
ATOM     16  C   ARG A   1      23.547  32.888  27.410  0.00  0.00    +0.224 C 
ATOM     17  O   ARG A   1      24.338  33.311  28.283  0.00  0.00    -0.287 OA
ENDBRANCH  13  16
ENDBRANCH  12  13
ENDBRANCH  11  12
ENDBRANCH  10  11
ENDBRANCH   1  10
TORSDOF 6
REMARK  Name = ../refined-set-2016/2nmz/2nmz_pocket.pdb
REMARK  224 active torsions:
REMARK  status: ('A' for Active; 'I' for Inactive)
REMARK    1  A    between atoms: _1  and  _3
REMARK    2  A    between atoms: _3  and  _4
REMARK    3  A    between atoms: _3  and  _6
REMARK    4  A    between atoms: _6  and  _7
REMARK    5  A    between atoms: _7  and  _8
REMARK    6  A    between atoms: _8  and  _9
REMARK    7  A    between atoms: _18  and  _20
REMARK    8  A    between atoms: _20  and  _21
REMARK    9  A    between atoms: _20  and  _23
REMARK   10  A    between atoms: _23  and  _24
REMARK   11  A    between atoms: _27  and  _29
REMARK   12  A    between atoms: _29  and  _30
REMARK   13  A    between atoms: _29  and  _32
REMARK   14  A    between atoms: _32  and  _33
REMARK   15  A    between atoms: _36  and  _38
REMARK   16  A    between atoms: _38  and  _39
REMARK   17  A    between atoms: _38  and  _41
REMARK   18  A    between atoms: _41  and  _42
REMARK   19  A    between atoms: _45  and  _47
REMARK   20  A    between atoms: _47  and  _48
REMARK   21  A    between atoms: _47  and  _50
REMARK   22  A    between atoms: _50  and  _51
REMARK   23  A    between atoms: _54  and  _56
REMARK   24  A    between atoms: _56  and  _57
REMARK   25  A    between atoms: _59  and  _61
REMARK   26  A    between atoms: _61  and  _62
REMARK   27  A    between atoms: _65  and  _67
REMARK   28  A    between atoms: _67  and  _68
REMARK   29  A    between atoms: _67  and  _70
REMARK   30  A    between atoms: _70  and  _71
REMARK   31  A    between atoms: _74  and  _76
REMARK   32  A    between atoms: _76  and  _77
REMARK   33  A    between atoms: _76  and  _79
REMARK   34  A    between atoms: _79  and  _80
REMARK   35  A    between atoms: _83  and  _85
REMARK   36  A    between atoms: _85  and  _86
REMARK   37  A    between atoms: _85  and  _88
REMARK   38  A    between atoms: _88  and  _89
REMARK   39  A    between atoms: _92  and  _94
REMARK   40  A    between atoms: _94  and  _95
REMARK   41  A    between atoms: _94  and  _97
REMARK   42  A    between atoms: _100  and  _102
REMARK   43  A    between atoms: _102  and  _103
REMARK   44  A    between atoms: _102  and  _105
REMARK   45  A    between atoms: _105  and  _106
REMARK   46  A    between atoms: _106  and  _107
REMARK   47  A    between atoms: _107  and  _108
REMARK   48  A    between atoms: _108  and  _109
REMARK   49  A    between atoms: _113  and  _115
REMARK   50  A    between atoms: _115  and  _116
REMARK   51  A    between atoms: _115  and  _118
REMARK   52  A    between atoms: _118  and  _119
REMARK   53  A    between atoms: _119  and  _120
REMARK   54  A    between atoms: _122  and  _124
REMARK   55  A    between atoms: _124  and  _125
REMARK   56  A    between atoms: _124  and  _127
REMARK   57  A    between atoms: _127  and  _128
REMARK   58  A    between atoms: _131  and  _133
REMARK   59  A    between atoms: _133  and  _134
REMARK   60  A    between atoms: _136  and  _138
REMARK   61  A    between atoms: _138  and  _139
REMARK   62  A    between atoms: _141  and  _143
REMARK   63  A    between atoms: _143  and  _144
REMARK   64  A    between atoms: _143  and  _146
REMARK   65  A    between atoms: _146  and  _147
REMARK   66  A    between atoms: _150  and  _152
REMARK   67  A    between atoms: _152  and  _153
REMARK   68  A    between atoms: _155  and  _157
REMARK   69  A    between atoms: _157  and  _158
REMARK   70  A    between atoms: _160  and  _162
REMARK   71  A    between atoms: _162  and  _163
REMARK   72  A    between atoms: _162  and  _165
REMARK   73  A    between atoms: _165  and  _166
REMARK   74  A    between atoms: _172  and  _174
REMARK   75  A    between atoms: _174  and  _175
REMARK   76  A    between atoms: _174  and  _177
REMARK   77  A    between atoms: _177  and  _178
REMARK   78  A    between atoms: _181  and  _183
REMARK   79  A    between atoms: _183  and  _184
REMARK   80  A    between atoms: _183  and  _186
REMARK   81  A    between atoms: _189  and  _191
REMARK   82  A    between atoms: _191  and  _192
REMARK   83  A    between atoms: _191  and  _194
REMARK   84  A    between atoms: _194  and  _195
REMARK   85  A    between atoms: _199  and  _200
REMARK   86  A    between atoms: _205  and  _207
REMARK   87  A    between atoms: _207  and  _208
REMARK   88  A    between atoms: _207  and  _210
REMARK   89  A    between atoms: _210  and  _211
REMARK   90  A    between atoms: _215  and  _216
REMARK   91  A    between atoms: _221  and  _223
REMARK   92  A    between atoms: _223  and  _224
REMARK   93  A    between atoms: _227  and  _229
REMARK   94  A    between atoms: _229  and  _230
REMARK   95  A    between atoms: _229  and  _232
REMARK   96  A    between atoms: _232  and  _233
REMARK   97  A    between atoms: _238  and  _240
REMARK   98  A    between atoms: _240  and  _241
REMARK   99  A    between atoms: _240  and  _243
REMARK  100  A    between atoms: _243  and  _244
REMARK  101  A    between atoms: _247  and  _249
REMARK  102  A    between atoms: _249  and  _250
REMARK  103  A    between atoms: _249  and  _252
REMARK  104  A    between atoms: _252  and  _253
REMARK  105  A    between atoms: _256  and  _258
REMARK  106  A    between atoms: _258  and  _259
REMARK  107  A    between atoms: _261  and  _263
REMARK  108  A    between atoms: _263  and  _264
REMARK  109  A    between atoms: _263  and  _266
REMARK  110  A    between atoms: _266  and  _267
REMARK  111  A    between atoms: _267  and  _268
REMARK  112  A    between atoms: _268  and  _269
REMARK  113  A    between atoms: _278  and  _280
REMARK  114  A    between atoms: _280  and  _281
REMARK  115  A    between atoms: _280  and  _283
REMARK  116  A    between atoms: _283  and  _284
REMARK  117  A    between atoms: _289  and  _291
REMARK  118  A    between atoms: _291  and  _292
REMARK  119  A    between atoms: _291  and  _294
REMARK  120  A    between atoms: _294  and  _295
REMARK  121  A    between atoms: _295  and  _296
REMARK  122  A    between atoms: _296  and  _297
REMARK  123  A    between atoms: _306  and  _308
REMARK  124  A    between atoms: _308  and  _309
REMARK  125  A    between atoms: _308  and  _311
REMARK  126  A    between atoms: _311  and  _312
REMARK  127  A    between atoms: _315  and  _317
REMARK  128  A    between atoms: _317  and  _318
REMARK  129  A    between atoms: _317  and  _320
REMARK  130  A    between atoms: _320  and  _321
REMARK  131  A    between atoms: _324  and  _326
REMARK  132  A    between atoms: _326  and  _327
REMARK  133  A    between atoms: _326  and  _329
REMARK  134  A    between atoms: _329  and  _330
REMARK  135  A    between atoms: _333  and  _335
REMARK  136  A    between atoms: _335  and  _336
REMARK  137  A    between atoms: _335  and  _338
REMARK  138  A    between atoms: _338  and  _339
REMARK  139  A    between atoms: _342  and  _344
REMARK  140  A    between atoms: _344  and  _345
REMARK  141  A    between atoms: _347  and  _349
REMARK  142  A    between atoms: _349  and  _350
REMARK  143  A    between atoms: _353  and  _355
REMARK  144  A    between atoms: _355  and  _356
REMARK  145  A    between atoms: _355  and  _358
REMARK  146  A    between atoms: _358  and  _359
REMARK  147  A    between atoms: _362  and  _364
REMARK  148  A    between atoms: _364  and  _365
REMARK  149  A    between atoms: _364  and  _367
REMARK  150  A    between atoms: _367  and  _368
REMARK  151  A    between atoms: _371  and  _373
REMARK  152  A    between atoms: _373  and  _374
REMARK  153  A    between atoms: _373  and  _376
REMARK  154  A    between atoms: _376  and  _377
REMARK  155  A    between atoms: _380  and  _382
REMARK  156  A    between atoms: _382  and  _383
REMARK  157  A    between atoms: _382  and  _385
REMARK  158  A    between atoms: _388  and  _390
REMARK  159  A    between atoms: _390  and  _391
REMARK  160  A    between atoms: _390  and  _393
REMARK  161  A    between atoms: _393  and  _394
REMARK  162  A    between atoms: _394  and  _395
REMARK  163  A    between atoms: _397  and  _399
REMARK  164  A    between atoms: _399  and  _400
REMARK  165  A    between atoms: _399  and  _402
REMARK  166  A    between atoms: _402  and  _403
REMARK  167  A    between atoms: _406  and  _408
REMARK  168  A    between atoms: _408  and  _409
REMARK  169  A    between atoms: _411  and  _413
REMARK  170  A    between atoms: _413  and  _414
REMARK  171  A    between atoms: _416  and  _418
REMARK  172  A    between atoms: _418  and  _419
REMARK  173  A    between atoms: _418  and  _421
REMARK  174  A    between atoms: _421  and  _422
REMARK  175  A    between atoms: _425  and  _427
REMARK  176  A    between atoms: _427  and  _428
REMARK  177  A    between atoms: _430  and  _432
REMARK  178  A    between atoms: _432  and  _433
REMARK  179  A    between atoms: _435  and  _437
REMARK  180  A    between atoms: _437  and  _438
REMARK  181  A    between atoms: _437  and  _440
REMARK  182  A    between atoms: _440  and  _441
REMARK  183  A    between atoms: _447  and  _449
REMARK  184  A    between atoms: _449  and  _450
REMARK  185  A    between atoms: _449  and  _452
REMARK  186  A    between atoms: _452  and  _453
REMARK  187  A    between atoms: _456  and  _458
REMARK  188  A    between atoms: _458  and  _459
REMARK  189  A    between atoms: _458  and  _461
REMARK  190  A    between atoms: _464  and  _466
REMARK  191  A    between atoms: _466  and  _467
REMARK  192  A    between atoms: _466  and  _469
REMARK  193  A    between atoms: _469  and  _470
REMARK  194  A    between atoms: _473  and  _475
REMARK  195  A    between atoms: _475  and  _476
REMARK  196  A    between atoms: _475  and  _478
REMARK  197  A    between atoms: _478  and  _479
REMARK  198  A    between atoms: _483  and  _484
REMARK  199  A    between atoms: _489  and  _491
REMARK  200  A    between atoms: _491  and  _492
REMARK  201  A    between atoms: _495  and  _497
REMARK  202  A    between atoms: _497  and  _498
REMARK  203  A    between atoms: _497  and  _500
REMARK  204  A    between atoms: _500  and  _501
REMARK  205  A    between atoms: _506  and  _508
REMARK  206  A    between atoms: _508  and  _509
REMARK  207  A    between atoms: _508  and  _511
REMARK  208  A    between atoms: _511  and  _512
REMARK  209  A    between atoms: _515  and  _517
REMARK  210  A    between atoms: _517  and  _518
REMARK  211  A    between atoms: _517  and  _520
REMARK  212  A    between atoms: _520  and  _521
REMARK  213  A    between atoms: _524  and  _526
REMARK  214  A    between atoms: _526  and  _527
REMARK  215  A    between atoms: _529  and  _531
REMARK  216  A    between atoms: _531  and  _532
REMARK  217  A    between atoms: _531  and  _534
REMARK  218  A    between atoms: _534  and  _535
REMARK  219  A    between atoms: _535  and  _536
REMARK  220  A    between atoms: _536  and  _537
REMARK  221  A    between atoms: _546  and  _548
REMARK  222  A    between atoms: _548  and  _549
REMARK  223  A    between atoms: _548  and  _551
REMARK  224  A    between atoms: _551  and  _552
REMARK                            x       y       z     vdW  Elec       q    Type
REMARK                         _______ _______ _______ _____ _____    ______ ____
ROOT
ATOM      1  C   GLY A   5      20.743  25.185  16.120  0.00  0.00    +0.243 C 
ATOM      2  N   ALA A   6      22.041  25.195  16.326  0.00  0.00    -0.297 N 
ATOM      3  H   ALA A   6      22.395  25.113  17.300  0.00  0.00    +0.150 HD
ATOM      4  O   GLY A   5      20.257  25.217  15.004  0.00  0.00    -0.273 OA
ENDROOT
BRANCH   2   5
ATOM      5  CA  ALA A   6      23.004  25.317  15.233  0.00  0.00    +0.149 C 
ATOM      6  CB  ALA A   6      24.114  26.300  15.599  0.00  0.00    +0.031 C 
BRANCH   5   7
ATOM      7  C   ALA A   6      23.600  23.970  14.917  0.00  0.00    +0.241 C 
ATOM      8  O   ALA A   6      24.111  23.278  15.790  0.00  0.00    -0.273 OA
ATOM      9  N   ASP A   7      23.571  23.580  13.617  0.00  0.00    -0.297 N 
ATOM     10  H   ASP A   7      23.079  24.159  12.907  0.00  0.00    +0.150 HD
BRANCH   9  11
ATOM     11  CA  ASP A   7      24.229  22.353  13.228  0.00  0.00    +0.160 C 
BRANCH  11  12
ATOM     12  C   ASP A   7      25.735  22.481  13.358  0.00  0.00    +0.241 C 
ATOM     13  O   ASP A   7      26.421  21.510  13.692  0.00  0.00    -0.273 OA
ATOM     14  N   ASP A   8      26.266  23.648  13.046  0.00  0.00    -0.297 N 
ATOM     15  H   ASP A   8      25.603  24.442  12.942  0.00  0.00    +0.150 HD
BRANCH  14  16
ATOM     16  CA  ASP A   8      27.656  23.947  12.834  0.00  0.00    +0.160 C 
BRANCH  16  17
ATOM     17  C   ASP A   8      28.135  24.978  13.818  0.00  0.00    +0.241 C 
ATOM     18  O   ASP A   8      27.367  25.711  14.439  0.00  0.00    -0.273 OA
ATOM     19  N   THR A   9      29.452  25.085  13.938  0.00  0.00    -0.295 N 
ATOM     20  H   THR A   9      30.033  24.418  13.392  0.00  0.00    +0.150 HD
BRANCH  19  21
ATOM     21  CA  THR A   9      30.157  26.055  14.768  0.00  0.00    +0.176 C 
BRANCH  21  22
ATOM     22  C   THR A   9      30.687  27.156  13.842  0.00  0.00    +0.243 C 
ATOM     23  N   VAL A  10      30.354  28.404  14.179  0.00  0.00    -0.298 N 
ATOM     24  H   VAL A  10      29.859  28.570  15.078  0.00  0.00    +0.150 HD
ATOM     25  O   THR A   9      31.380  26.862  12.861  0.00  0.00    -0.273 OA
BRANCH  23  26
ATOM     26  CA  VAL A  10      30.666  29.545  13.319  0.00  0.00    +0.137 C 
BRANCH  26  27
ATOM     27  CB  VAL A  10      29.435  30.053  12.560  0.00  0.00    +0.026 C 
ATOM     28  CG2 VAL A  10      28.609  28.943  11.987  0.00  0.00    +0.002 C 
ATOM     29  CG1 VAL A  10      29.917  31.018  11.462  0.00  0.00    +0.002 C 
ENDBRANCH  26  27
BRANCH  26  30
ATOM     30  C   VAL A  10      31.310  30.613  14.188  0.00  0.00    +0.227 C 
ATOM     31  O   VAL A  10      30.701  31.061  15.182  0.00  0.00    -0.286 OA
ENDBRANCH  26  30
ENDBRANCH  23  26
ENDBRANCH  21  22
BRANCH  21  32
ATOM     32  CB  THR A   9      31.287  25.360  15.532  0.00  0.00    +0.137 C 
ATOM     33  CG2 THR A   9      32.202  26.337  16.262  0.00  0.00    +0.034 C 
BRANCH  32  34
ATOM     34  OG1 THR A   9      30.682  24.461  16.480  0.00  0.00    -0.382 OA
ATOM     35  HG1 THR A   9      30.131  23.796  15.997  0.00  0.00    +0.210 HD
ENDBRANCH  32  34
ENDBRANCH  21  32
ENDBRANCH  19  21
ENDBRANCH  16  17
BRANCH  16  36
ATOM     36  CB  ASP A   8      27.880  24.487  11.432  0.00  0.00    +0.143 C 
BRANCH  36  37
ATOM     37  CG  ASP A   8      27.316  23.663  10.340  0.00  0.00    +0.367 C 
ATOM     38  OD2 ASP A   8      27.618  22.466  10.394  0.00  0.00    -0.246 OA
ATOM     39  OD1 ASP A   8      26.679  24.256   9.426  0.00  0.00    -0.246 OA
ENDBRANCH  36  37
ENDBRANCH  16  36
ENDBRANCH  14  16
ENDBRANCH  11  12
BRANCH  11  40
ATOM     40  CB  ASP A   7      23.893  22.026  11.767  0.00  0.00    +0.143 C 
BRANCH  40  41
ATOM     41  CG  ASP A   7      22.448  21.726  11.443  0.00  0.00    +0.367 C 
ATOM     42  OD2 ASP A   7      21.649  21.481  12.361  0.00  0.00    -0.246 OA
ATOM     43  OD1 ASP A   7      22.115  21.702  10.257  0.00  0.00    -0.246 OA
ENDBRANCH  40  41
ENDBRANCH  11  40
ENDBRANCH   9  11
ENDBRANCH   5   7
ENDBRANCH   2   5
BRANCH   1  44
ATOM     44  CA  GLY A   5      19.811  25.096  17.314  0.00  0.00    +0.176 C 
BRANCH  44  46
ATOM     45  C   THR A   4      20.900  23.722  18.964  0.00  0.00    +0.243 C 
ATOM     46  N   GLY A   5      20.483  24.924  18.585  0.00  0.00    -0.295 N 
ATOM     47  H   GLY A   5      20.640  25.745  19.203  0.00  0.00    +0.150 HD
ATOM     48  O   THR A   4      20.702  22.639  18.357  0.00  0.00    -0.273 OA
BRANCH  45  49
ATOM     49  CA  THR A   4      21.653  23.636  20.297  0.00  0.00    +0.176 C 
BRANCH  49  51
ATOM     50  C   ASP A   3      23.235  25.492  19.974  0.00  0.00    +0.241 C 
ATOM     51  N   THR A   4      22.268  24.895  20.666  0.00  0.00    -0.295 N 
ATOM     52  H   THR A   4      21.931  25.364  21.531  0.00  0.00    +0.150 HD
ATOM     53  O   ASP A   3      23.685  24.994  18.935  0.00  0.00    -0.273 OA
BRANCH  50  54
ATOM     54  CA  ASP A   3      23.786  26.823  20.481  0.00  0.00    +0.160 C 
BRANCH  54  57
ATOM     55  C   LEU A   2      24.937  27.257  22.599  0.00  0.00    +0.241 C 
ATOM     56  O   LEU A   2      23.946  27.695  23.215  0.00  0.00    -0.273 OA
ATOM     57  N   ASP A   3      24.878  26.667  21.419  0.00  0.00    -0.297 N 
ATOM     58  H   ASP A   3      25.669  26.049  21.145  0.00  0.00    +0.150 HD
BRANCH  55  59
ATOM     59  CA  LEU A   2      26.324  27.391  23.239  0.00  0.00    +0.149 C 
BRANCH  59  61
ATOM     60  C   LEU A   1      27.061  29.533  22.319  0.00  0.00    +0.238 C 
ATOM     61  N   LEU A   2      26.648  28.808  23.373  0.00  0.00    -0.297 N 
ATOM     62  H   LEU A   2      26.558  29.266  24.302  0.00  0.00    +0.150 HD
ATOM     63  O   LEU A   1      27.245  29.019  21.211  0.00  0.00    -0.274 OA
BRANCH  60  64
ATOM     64  CA  LEU A   1      27.237  31.024  22.497  0.00  0.00    +0.145 C 
BRANCH  64  65
ATOM     65  N   LEU A   1      28.567  31.414  22.096  0.00  0.00    -0.238 NA
ATOM     66  H   LEU A   1      28.735  31.588  21.085  0.00  0.00    +0.142 HD
ENDBRANCH  64  65
BRANCH  64  67
ATOM     67  CB  LEU A   1      26.278  31.787  21.575  0.00  0.00    +0.026 C 
BRANCH  67  68
ATOM     68  CG  LEU A   1      24.797  31.667  21.820  0.00  0.00    +0.002 C 
ATOM     69  CD2 LEU A   1      24.392  32.297  23.123  0.00  0.00    +0.000 C 
ATOM     70  CD1 LEU A   1      24.061  32.350  20.676  0.00  0.00    +0.000 C 
ENDBRANCH  67  68
ENDBRANCH  64  67
ENDBRANCH  60  64
ENDBRANCH  59  61
BRANCH  59  71
ATOM     71  CB  LEU A   2      26.361  26.720  24.587  0.00  0.00    +0.029 C 
BRANCH  71  72
ATOM     72  CG  LEU A   2      27.693  26.822  25.345  0.00  0.00    +0.002 C 
ATOM     73  CD2 LEU A   2      27.534  26.174  26.729  0.00  0.00    +0.000 C 
ATOM     74  CD1 LEU A   2      28.811  26.242  24.559  0.00  0.00    +0.000 C 
ENDBRANCH  71  72
ENDBRANCH  59  71
ENDBRANCH  55  59
ENDBRANCH  54  57
BRANCH  54  75
ATOM     75  CB  ASP A   3      24.276  27.701  19.343  0.00  0.00    +0.143 C 
BRANCH  75  76
ATOM     76  CG  ASP A   3      23.174  28.177  18.400  0.00  0.00    +0.367 C 
ATOM     77  OD2 ASP A   3      22.030  27.677  18.642  0.00  0.00    -0.246 OA
ATOM     78  OD1 ASP A   3      23.419  28.998  17.505  0.00  0.00    -0.246 OA
ENDBRANCH  75  76
ENDBRANCH  54  75
ENDBRANCH  50  54
ENDBRANCH  49  51
BRANCH  49  79
ATOM     79  CB  THR A   4      20.678  23.064  21.343  0.00  0.00    +0.137 C 
ATOM     80  CG2 THR A   4      21.380  22.836  22.679  0.00  0.00    +0.034 C 
BRANCH  79  81
ATOM     81  OG1 THR A   4      19.605  23.977  21.604  0.00  0.00    -0.382 OA
ATOM     82  HG1 THR A   4      19.106  24.147  20.766  0.00  0.00    +0.210 HD
ENDBRANCH  79  81
ENDBRANCH  49  79
ENDBRANCH  45  49
ENDBRANCH  44  46
ENDBRANCH   1  44
TORSDOF 35
REMARK  Name = ../refined-set-2016/2nmz/2nmz_pocket.pdb
REMARK  224 active torsions:
REMARK  status: ('A' for Active; 'I' for Inactive)
REMARK    1  A    between atoms: _1  and  _3
REMARK    2  A    between atoms: _3  and  _4
REMARK    3  A    between atoms: _3  and  _6
REMARK    4  A    between atoms: _6  and  _7
REMARK    5  A    between atoms: _7  and  _8
REMARK    6  A    between atoms: _8  and  _9
REMARK    7  A    between atoms: _18  and  _20
REMARK    8  A    between atoms: _20  and  _21
REMARK    9  A    between atoms: _20  and  _23
REMARK   10  A    between atoms: _23  and  _24
REMARK   11  A    between atoms: _27  and  _29
REMARK   12  A    between atoms: _29  and  _30
REMARK   13  A    between atoms: _29  and  _32
REMARK   14  A    between atoms: _32  and  _33
REMARK   15  A    between atoms: _36  and  _38
REMARK   16  A    between atoms: _38  and  _39
REMARK   17  A    between atoms: _38  and  _41
REMARK   18  A    between atoms: _41  and  _42
REMARK   19  A    between atoms: _45  and  _47
REMARK   20  A    between atoms: _47  and  _48
REMARK   21  A    between atoms: _47  and  _50
REMARK   22  A    between atoms: _50  and  _51
REMARK   23  A    between atoms: _54  and  _56
REMARK   24  A    between atoms: _56  and  _57
REMARK   25  A    between atoms: _59  and  _61
REMARK   26  A    between atoms: _61  and  _62
REMARK   27  A    between atoms: _65  and  _67
REMARK   28  A    between atoms: _67  and  _68
REMARK   29  A    between atoms: _67  and  _70
REMARK   30  A    between atoms: _70  and  _71
REMARK   31  A    between atoms: _74  and  _76
REMARK   32  A    between atoms: _76  and  _77
REMARK   33  A    between atoms: _76  and  _79
REMARK   34  A    between atoms: _79  and  _80
REMARK   35  A    between atoms: _83  and  _85
REMARK   36  A    between atoms: _85  and  _86
REMARK   37  A    between atoms: _85  and  _88
REMARK   38  A    between atoms: _88  and  _89
REMARK   39  A    between atoms: _92  and  _94
REMARK   40  A    between atoms: _94  and  _95
REMARK   41  A    between atoms: _94  and  _97
REMARK   42  A    between atoms: _100  and  _102
REMARK   43  A    between atoms: _102  and  _103
REMARK   44  A    between atoms: _102  and  _105
REMARK   45  A    between atoms: _105  and  _106
REMARK   46  A    between atoms: _106  and  _107
REMARK   47  A    between atoms: _107  and  _108
REMARK   48  A    between atoms: _108  and  _109
REMARK   49  A    between atoms: _113  and  _115
REMARK   50  A    between atoms: _115  and  _116
REMARK   51  A    between atoms: _115  and  _118
REMARK   52  A    between atoms: _118  and  _119
REMARK   53  A    between atoms: _119  and  _120
REMARK   54  A    between atoms: _122  and  _124
REMARK   55  A    between atoms: _124  and  _125
REMARK   56  A    between atoms: _124  and  _127
REMARK   57  A    between atoms: _127  and  _128
REMARK   58  A    between atoms: _131  and  _133
REMARK   59  A    between atoms: _133  and  _134
REMARK   60  A    between atoms: _136  and  _138
REMARK   61  A    between atoms: _138  and  _139
REMARK   62  A    between atoms: _141  and  _143
REMARK   63  A    between atoms: _143  and  _144
REMARK   64  A    between atoms: _143  and  _146
REMARK   65  A    between atoms: _146  and  _147
REMARK   66  A    between atoms: _150  and  _152
REMARK   67  A    between atoms: _152  and  _153
REMARK   68  A    between atoms: _155  and  _157
REMARK   69  A    between atoms: _157  and  _158
REMARK   70  A    between atoms: _160  and  _162
REMARK   71  A    between atoms: _162  and  _163
REMARK   72  A    between atoms: _162  and  _165
REMARK   73  A    between atoms: _165  and  _166
REMARK   74  A    between atoms: _172  and  _174
REMARK   75  A    between atoms: _174  and  _175
REMARK   76  A    between atoms: _174  and  _177
REMARK   77  A    between atoms: _177  and  _178
REMARK   78  A    between atoms: _181  and  _183
REMARK   79  A    between atoms: _183  and  _184
REMARK   80  A    between atoms: _183  and  _186
REMARK   81  A    between atoms: _189  and  _191
REMARK   82  A    between atoms: _191  and  _192
REMARK   83  A    between atoms: _191  and  _194
REMARK   84  A    between atoms: _194  and  _195
REMARK   85  A    between atoms: _199  and  _200
REMARK   86  A    between atoms: _205  and  _207
REMARK   87  A    between atoms: _207  and  _208
REMARK   88  A    between atoms: _207  and  _210
REMARK   89  A    between atoms: _210  and  _211
REMARK   90  A    between atoms: _215  and  _216
REMARK   91  A    between atoms: _221  and  _223
REMARK   92  A    between atoms: _223  and  _224
REMARK   93  A    between atoms: _227  and  _229
REMARK   94  A    between atoms: _229  and  _230
REMARK   95  A    between atoms: _229  and  _232
REMARK   96  A    between atoms: _232  and  _233
REMARK   97  A    between atoms: _238  and  _240
REMARK   98  A    between atoms: _240  and  _241
REMARK   99  A    between atoms: _240  and  _243
REMARK  100  A    between atoms: _243  and  _244
REMARK  101  A    between atoms: _247  and  _249
REMARK  102  A    between atoms: _249  and  _250
REMARK  103  A    between atoms: _249  and  _252
REMARK  104  A    between atoms: _252  and  _253
REMARK  105  A    between atoms: _256  and  _258
REMARK  106  A    between atoms: _258  and  _259
REMARK  107  A    between atoms: _261  and  _263
REMARK  108  A    between atoms: _263  and  _264
REMARK  109  A    between atoms: _263  and  _266
REMARK  110  A    between atoms: _266  and  _267
REMARK  111  A    between atoms: _267  and  _268
REMARK  112  A    between atoms: _268  and  _269
REMARK  113  A    between atoms: _278  and  _280
REMARK  114  A    between atoms: _280  and  _281
REMARK  115  A    between atoms: _280  and  _283
REMARK  116  A    between atoms: _283  and  _284
REMARK  117  A    between atoms: _289  and  _291
REMARK  118  A    between atoms: _291  and  _292
REMARK  119  A    between atoms: _291  and  _294
REMARK  120  A    between atoms: _294  and  _295
REMARK  121  A    between atoms: _295  and  _296
REMARK  122  A    between atoms: _296  and  _297
REMARK  123  A    between atoms: _306  and  _308
REMARK  124  A    between atoms: _308  and  _309
REMARK  125  A    between atoms: _308  and  _311
REMARK  126  A    between atoms: _311  and  _312
REMARK  127  A    between atoms: _315  and  _317
REMARK  128  A    between atoms: _317  and  _318
REMARK  129  A    between atoms: _317  and  _320
REMARK  130  A    between atoms: _320  and  _321
REMARK  131  A    between atoms: _324  and  _326
REMARK  132  A    between atoms: _326  and  _327
REMARK  133  A    between atoms: _326  and  _329
REMARK  134  A    between atoms: _329  and  _330
REMARK  135  A    between atoms: _333  and  _335
REMARK  136  A    between atoms: _335  and  _336
REMARK  137  A    between atoms: _335  and  _338
REMARK  138  A    between atoms: _338  and  _339
REMARK  139  A    between atoms: _342  and  _344
REMARK  140  A    between atoms: _344  and  _345
REMARK  141  A    between atoms: _347  and  _349
REMARK  142  A    between atoms: _349  and  _350
REMARK  143  A    between atoms: _353  and  _355
REMARK  144  A    between atoms: _355  and  _356
REMARK  145  A    between atoms: _355  and  _358
REMARK  146  A    between atoms: _358  and  _359
REMARK  147  A    between atoms: _362  and  _364
REMARK  148  A    between atoms: _364  and  _365
REMARK  149  A    between atoms: _364  and  _367
REMARK  150  A    between atoms: _367  and  _368
REMARK  151  A    between atoms: _371  and  _373
REMARK  152  A    between atoms: _373  and  _374
REMARK  153  A    between atoms: _373  and  _376
REMARK  154  A    between atoms: _376  and  _377
REMARK  155  A    between atoms: _380  and  _382
REMARK  156  A    between atoms: _382  and  _383
REMARK  157  A    between atoms: _382  and  _385
REMARK  158  A    between atoms: _388  and  _390
REMARK  159  A    between atoms: _390  and  _391
REMARK  160  A    between atoms: _390  and  _393
REMARK  161  A    between atoms: _393  and  _394
REMARK  162  A    between atoms: _394  and  _395
REMARK  163  A    between atoms: _397  and  _399
REMARK  164  A    between atoms: _399  and  _400
REMARK  165  A    between atoms: _399  and  _402
REMARK  166  A    between atoms: _402  and  _403
REMARK  167  A    between atoms: _406  and  _408
REMARK  168  A    between atoms: _408  and  _409
REMARK  169  A    between atoms: _411  and  _413
REMARK  170  A    between atoms: _413  and  _414
REMARK  171  A    between atoms: _416  and  _418
REMARK  172  A    between atoms: _418  and  _419
REMARK  173  A    between atoms: _418  and  _421
REMARK  174  A    between atoms: _421  and  _422
REMARK  175  A    between atoms: _425  and  _427
REMARK  176  A    between atoms: _427  and  _428
REMARK  177  A    between atoms: _430  and  _432
REMARK  178  A    between atoms: _432  and  _433
REMARK  179  A    between atoms: _435  and  _437
REMARK  180  A    between atoms: _437  and  _438
REMARK  181  A    between atoms: _437  and  _440
REMARK  182  A    between atoms: _440  and  _441
REMARK  183  A    between atoms: _447  and  _449
REMARK  184  A    between atoms: _449  and  _450
REMARK  185  A    between atoms: _449  and  _452
REMARK  186  A    between atoms: _452  and  _453
REMARK  187  A    between atoms: _456  and  _458
REMARK  188  A    between atoms: _458  and  _459
REMARK  189  A    between atoms: _458  and  _461
REMARK  190  A    between atoms: _464  and  _466
REMARK  191  A    between atoms: _466  and  _467
REMARK  192  A    between atoms: _466  and  _469
REMARK  193  A    between atoms: _469  and  _470
REMARK  194  A    between atoms: _473  and  _475
REMARK  195  A    between atoms: _475  and  _476
REMARK  196  A    between atoms: _475  and  _478
REMARK  197  A    between atoms: _478  and  _479
REMARK  198  A    between atoms: _483  and  _484
REMARK  199  A    between atoms: _489  and  _491
REMARK  200  A    between atoms: _491  and  _492
REMARK  201  A    between atoms: _495  and  _497
REMARK  202  A    between atoms: _497  and  _498
REMARK  203  A    between atoms: _497  and  _500
REMARK  204  A    between atoms: _500  and  _501
REMARK  205  A    between atoms: _506  and  _508
REMARK  206  A    between atoms: _508  and  _509
REMARK  207  A    between atoms: _508  and  _511
REMARK  208  A    between atoms: _511  and  _512
REMARK  209  A    between atoms: _515  and  _517
REMARK  210  A    between atoms: _517  and  _518
REMARK  211  A    between atoms: _517  and  _520
REMARK  212  A    between atoms: _520  and  _521
REMARK  213  A    between atoms: _524  and  _526
REMARK  214  A    between atoms: _526  and  _527
REMARK  215  A    between atoms: _529  and  _531
REMARK  216  A    between atoms: _531  and  _532
REMARK  217  A    between atoms: _531  and  _534
REMARK  218  A    between atoms: _534  and  _535
REMARK  219  A    between atoms: _535  and  _536
REMARK  220  A    between atoms: _536  and  _537
REMARK  221  A    between atoms: _546  and  _548
REMARK  222  A    between atoms: _548  and  _549
REMARK  223  A    between atoms: _548  and  _551
REMARK  224  A    between atoms: _551  and  _552
REMARK                            x       y       z     vdW  Elec       q    Type
REMARK                         _______ _______ _______ _____ _____    ______ ____
ROOT
ATOM      1  CA  ILE A   5      17.420  32.723   9.929  0.00  0.00    +0.149 C 
ENDROOT
BRANCH   1   3
ATOM      2  C   GLY A   4      19.051  31.424   8.802  0.00  0.00    +0.243 C 
ATOM      3  N   ILE A   5      18.719  32.084   9.899  0.00  0.00    -0.297 N 
ATOM      4  H   ILE A   5      19.367  32.142  10.710  0.00  0.00    +0.150 HD
ATOM      5  O   GLY A   4      18.612  31.606   7.680  0.00  0.00    -0.273 OA
BRANCH   2   6
ATOM      6  CA  GLY A   4      20.093  30.330   8.923  0.00  0.00    +0.176 C 
BRANCH   6   9
ATOM      7  C   GLY A   3      21.797  29.506   7.502  0.00  0.00    +0.243 C 
ATOM      8  O   GLY A   3      21.973  28.624   8.318  0.00  0.00    -0.273 OA
ATOM      9  N   GLY A   4      20.871  30.414   7.661  0.00  0.00    -0.295 N 
ATOM     10  H   GLY A   4      20.690  31.150   6.948  0.00  0.00    +0.150 HD
BRANCH   7  11
ATOM     11  CA  GLY A   3      22.545  29.679   6.205  0.00  0.00    +0.176 C 
BRANCH  11  13
ATOM     12  C   ILE A   2      24.739  29.176   5.469  0.00  0.00    +0.241 C 
ATOM     13  N   GLY A   3      23.600  28.696   6.008  0.00  0.00    -0.295 N 
ATOM     14  H   GLY A   3      23.484  27.695   6.265  0.00  0.00    +0.150 HD
ATOM     15  O   ILE A   2      24.873  30.366   5.178  0.00  0.00    -0.273 OA
BRANCH  12  16
ATOM     16  CA  ILE A   2      25.863  28.165   5.293  0.00  0.00    +0.148 C 
BRANCH  16  18
ATOM     17  C   MET A   1      27.264  27.869   3.338  0.00  0.00    +0.238 C 
ATOM     18  N   ILE A   2      26.761  28.663   4.271  0.00  0.00    -0.297 N 
ATOM     19  H   ILE A   2      27.017  29.671   4.270  0.00  0.00    +0.150 HD
ATOM     20  O   MET A   1      27.047  26.653   3.278  0.00  0.00    -0.274 OA
BRANCH  17  21
ATOM     21  CA  MET A   1      28.139  28.511   2.288  0.00  0.00    +0.146 C 
BRANCH  21  22
ATOM     22  N   MET A   1      29.283  27.676   1.978  0.00  0.00    -0.238 NA
ATOM     23  H   MET A   1      29.120  26.733   1.572  0.00  0.00    +0.142 HD
ENDBRANCH  21  22
BRANCH  21  24
ATOM     24  CB  MET A   1      27.378  28.712   1.027  0.00  0.00    +0.038 C 
BRANCH  24  25
ATOM     25  CG  MET A   1      28.058  29.710   0.121  0.00  0.00    +0.060 C 
BRANCH  25  26
ATOM     26  SD  MET A   1      27.097  29.954  -1.370  0.00  0.00    -0.139 S 
ATOM     27  CE  MET A   1      25.493  30.405  -0.640  0.00  0.00    +0.069 C 
ENDBRANCH  25  26
ENDBRANCH  24  25
ENDBRANCH  21  24
ENDBRANCH  17  21
ENDBRANCH  16  18
BRANCH  16  28
ATOM     28  CB  ILE A   2      26.580  27.977   6.638  0.00  0.00    +0.027 C 
ATOM     29  CG2 ILE A   2      27.541  26.829   6.547  0.00  0.00    +0.002 C 
BRANCH  28  30
ATOM     30  CG1 ILE A   2      27.125  29.302   7.208  0.00  0.00    +0.002 C 
ATOM     31  CD1 ILE A   2      27.571  29.260   8.594  0.00  0.00    +0.000 C 
ENDBRANCH  28  30
ENDBRANCH  16  28
ENDBRANCH  12  16
ENDBRANCH  11  13
ENDBRANCH   7  11
ENDBRANCH   6   9
ENDBRANCH   2   6
ENDBRANCH   1   3
BRANCH   1  32
ATOM     32  C   ILE A   5      17.279  33.746   8.844  0.00  0.00    +0.241 C 
ATOM     33  N   GLY A   6      18.301  34.511   8.484  0.00  0.00    -0.295 N 
ATOM     34  H   GLY A   6      19.233  34.328   8.908  0.00  0.00    +0.150 HD
ATOM     35  O   ILE A   5      16.168  33.823   8.285  0.00  0.00    -0.273 OA
BRANCH  33  36
ATOM     36  CA  GLY A   6      18.178  35.575   7.539  0.00  0.00    +0.176 C 
BRANCH  36  37
ATOM     37  C   GLY A   6      18.616  35.240   6.149  0.00  0.00    +0.243 C 
ATOM     38  N   GLY A   7      19.253  34.094   5.968  0.00  0.00    -0.295 N 
ATOM     39  H   GLY A   7      19.410  33.461   6.778  0.00  0.00    +0.150 HD
ATOM     40  O   GLY A   6      18.386  36.079   5.263  0.00  0.00    -0.273 OA
BRANCH  38  41
ATOM     41  CA  GLY A   7      19.738  33.707   4.649  0.00  0.00    +0.176 C 
BRANCH  41  42
ATOM     42  C   GLY A   7      21.131  33.112   4.737  0.00  0.00    +0.243 C 
ATOM     43  O   GLY A   7      21.555  32.626   5.771  0.00  0.00    -0.273 OA
ATOM     44  N   PHE A   8      21.851  33.160   3.621  0.00  0.00    -0.297 N 
ATOM     45  H   PHE A   8      21.511  33.726   2.818  0.00  0.00    +0.150 HD
BRANCH  44  46
ATOM     46  CA  PHE A   8      23.081  32.449   3.505  0.00  0.00    +0.153 C 
BRANCH  46  47
ATOM     47  C   PHE A   8      24.268  33.393   3.491  0.00  0.00    +0.241 C 
ATOM     48  N   ILE A   9      25.384  32.933   4.059  0.00  0.00    -0.298 N 
ATOM     49  H   ILE A   9      25.340  32.012   4.539  0.00  0.00    +0.150 HD
ATOM     50  O   PHE A   8      24.169  34.498   2.923  0.00  0.00    -0.273 OA
BRANCH  48  51
ATOM     51  CA  ILE A   9      26.665  33.638   4.051  0.00  0.00    +0.137 C 
BRANCH  51  52
ATOM     52  CB  ILE A   9      27.012  34.207   5.442  0.00  0.00    +0.026 C 
ATOM     53  CG2 ILE A   9      25.957  35.239   5.862  0.00  0.00    +0.002 C 
BRANCH  52  54
ATOM     54  CG1 ILE A   9      27.192  33.154   6.504  0.00  0.00    +0.002 C 
ATOM     55  CD1 ILE A   9      27.892  33.580   7.768  0.00  0.00    +0.000 C 
ENDBRANCH  52  54
ENDBRANCH  51  52
BRANCH  51  56
ATOM     56  C   ILE A   9      27.778  32.682   3.589  0.00  0.00    +0.227 C 
ATOM     57  O   ILE A   9      27.674  31.470   3.681  0.00  0.00    -0.286 OA
ENDBRANCH  51  56
ENDBRANCH  48  51
ENDBRANCH  46  47
BRANCH  46  58
ATOM     58  CB  PHE A   8      23.073  31.583   2.188  0.00  0.00    +0.055 C 
BRANCH  58  59
ATOM     59  CG  PHE A   8      22.137  30.407   2.317  0.00  0.00    -0.020 A 
ATOM     60  CD2 PHE A   8      22.722  29.171   2.591  0.00  0.00    -0.004 A 
ATOM     61  CE2 PHE A   8      21.900  28.064   2.795  0.00  0.00    -0.000 A 
ATOM     62  CZ  PHE A   8      20.538  28.199   2.719  0.00  0.00    -0.000 A 
ATOM     63  CE1 PHE A   8      19.933  29.398   2.432  0.00  0.00    -0.000 A 
ATOM     64  CD1 PHE A   8      20.766  30.499   2.208  0.00  0.00    -0.004 A 
ENDBRANCH  58  59
ENDBRANCH  46  58
ENDBRANCH  44  46
ENDBRANCH  41  42
ENDBRANCH  38  41
ENDBRANCH  36  37
ENDBRANCH  33  36
ENDBRANCH   1  32
BRANCH   1  65
ATOM     65  CB  ILE A   5      17.067  33.304  11.319  0.00  0.00    +0.027 C 
ATOM     66  CG2 ILE A   5      17.863  34.558  11.639  0.00  0.00    +0.002 C 
BRANCH  65  67
ATOM     67  CG1 ILE A   5      15.569  33.500  11.391  0.00  0.00    +0.002 C 
ATOM     68  CD1 ILE A   5      14.959  33.392  12.733  0.00  0.00    +0.000 C 
ENDBRANCH  65  67
ENDBRANCH   1  65
TORSDOF 29
REMARK  Name = ../refined-set-2016/2nmz/2nmz_pocket.pdb
REMARK  224 active torsions:
REMARK  status: ('A' for Active; 'I' for Inactive)
REMARK    1  A    between atoms: _1  and  _3
REMARK    2  A    between atoms: _3  and  _4
REMARK    3  A    between atoms: _3  and  _6
REMARK    4  A    between atoms: _6  and  _7
REMARK    5  A    between atoms: _7  and  _8
REMARK    6  A    between atoms: _8  and  _9
REMARK    7  A    between atoms: _18  and  _20
REMARK    8  A    between atoms: _20  and  _21
REMARK    9  A    between atoms: _20  and  _23
REMARK   10  A    between atoms: _23  and  _24
REMARK   11  A    between atoms: _27  and  _29
REMARK   12  A    between atoms: _29  and  _30
REMARK   13  A    between atoms: _29  and  _32
REMARK   14  A    between atoms: _32  and  _33
REMARK   15  A    between atoms: _36  and  _38
REMARK   16  A    between atoms: _38  and  _39
REMARK   17  A    between atoms: _38  and  _41
REMARK   18  A    between atoms: _41  and  _42
REMARK   19  A    between atoms: _45  and  _47
REMARK   20  A    between atoms: _47  and  _48
REMARK   21  A    between atoms: _47  and  _50
REMARK   22  A    between atoms: _50  and  _51
REMARK   23  A    between atoms: _54  and  _56
REMARK   24  A    between atoms: _56  and  _57
REMARK   25  A    between atoms: _59  and  _61
REMARK   26  A    between atoms: _61  and  _62
REMARK   27  A    between atoms: _65  and  _67
REMARK   28  A    between atoms: _67  and  _68
REMARK   29  A    between atoms: _67  and  _70
REMARK   30  A    between atoms: _70  and  _71
REMARK   31  A    between atoms: _74  and  _76
REMARK   32  A    between atoms: _76  and  _77
REMARK   33  A    between atoms: _76  and  _79
REMARK   34  A    between atoms: _79  and  _80
REMARK   35  A    between atoms: _83  and  _85
REMARK   36  A    between atoms: _85  and  _86
REMARK   37  A    between atoms: _85  and  _88
REMARK   38  A    between atoms: _88  and  _89
REMARK   39  A    between atoms: _92  and  _94
REMARK   40  A    between atoms: _94  and  _95
REMARK   41  A    between atoms: _94  and  _97
REMARK   42  A    between atoms: _100  and  _102
REMARK   43  A    between atoms: _102  and  _103
REMARK   44  A    between atoms: _102  and  _105
REMARK   45  A    between atoms: _105  and  _106
REMARK   46  A    between atoms: _106  and  _107
REMARK   47  A    between atoms: _107  and  _108
REMARK   48  A    between atoms: _108  and  _109
REMARK   49  A    between atoms: _113  and  _115
REMARK   50  A    between atoms: _115  and  _116
REMARK   51  A    between atoms: _115  and  _118
REMARK   52  A    between atoms: _118  and  _119
REMARK   53  A    between atoms: _119  and  _120
REMARK   54  A    between atoms: _122  and  _124
REMARK   55  A    between atoms: _124  and  _125
REMARK   56  A    between atoms: _124  and  _127
REMARK   57  A    between atoms: _127  and  _128
REMARK   58  A    between atoms: _131  and  _133
REMARK   59  A    between atoms: _133  and  _134
REMARK   60  A    between atoms: _136  and  _138
REMARK   61  A    between atoms: _138  and  _139
REMARK   62  A    between atoms: _141  and  _143
REMARK   63  A    between atoms: _143  and  _144
REMARK   64  A    between atoms: _143  and  _146
REMARK   65  A    between atoms: _146  and  _147
REMARK   66  A    between atoms: _150  and  _152
REMARK   67  A    between atoms: _152  and  _153
REMARK   68  A    between atoms: _155  and  _157
REMARK   69  A    between atoms: _157  and  _158
REMARK   70  A    between atoms: _160  and  _162
REMARK   71  A    between atoms: _162  and  _163
REMARK   72  A    between atoms: _162  and  _165
REMARK   73  A    between atoms: _165  and  _166
REMARK   74  A    between atoms: _172  and  _174
REMARK   75  A    between atoms: _174  and  _175
REMARK   76  A    between atoms: _174  and  _177
REMARK   77  A    between atoms: _177  and  _178
REMARK   78  A    between atoms: _181  and  _183
REMARK   79  A    between atoms: _183  and  _184
REMARK   80  A    between atoms: _183  and  _186
REMARK   81  A    between atoms: _189  and  _191
REMARK   82  A    between atoms: _191  and  _192
REMARK   83  A    between atoms: _191  and  _194
REMARK   84  A    between atoms: _194  and  _195
REMARK   85  A    between atoms: _199  and  _200
REMARK   86  A    between atoms: _205  and  _207
REMARK   87  A    between atoms: _207  and  _208
REMARK   88  A    between atoms: _207  and  _210
REMARK   89  A    between atoms: _210  and  _211
REMARK   90  A    between atoms: _215  and  _216
REMARK   91  A    between atoms: _221  and  _223
REMARK   92  A    between atoms: _223  and  _224
REMARK   93  A    between atoms: _227  and  _229
REMARK   94  A    between atoms: _229  and  _230
REMARK   95  A    between atoms: _229  and  _232
REMARK   96  A    between atoms: _232  and  _233
REMARK   97  A    between atoms: _238  and  _240
REMARK   98  A    between atoms: _240  and  _241
REMARK   99  A    between atoms: _240  and  _243
REMARK  100  A    between atoms: _243  and  _244
REMARK  101  A    between atoms: _247  and  _249
REMARK  102  A    between atoms: _249  and  _250
REMARK  103  A    between atoms: _249  and  _252
REMARK  104  A    between atoms: _252  and  _253
REMARK  105  A    between atoms: _256  and  _258
REMARK  106  A    between atoms: _258  and  _259
REMARK  107  A    between atoms: _261  and  _263
REMARK  108  A    between atoms: _263  and  _264
REMARK  109  A    between atoms: _263  and  _266
REMARK  110  A    between atoms: _266  and  _267
REMARK  111  A    between atoms: _267  and  _268
REMARK  112  A    between atoms: _268  and  _269
REMARK  113  A    between atoms: _278  and  _280
REMARK  114  A    between atoms: _280  and  _281
REMARK  115  A    between atoms: _280  and  _283
REMARK  116  A    between atoms: _283  and  _284
REMARK  117  A    between atoms: _289  and  _291
REMARK  118  A    between atoms: _291  and  _292
REMARK  119  A    between atoms: _291  and  _294
REMARK  120  A    between atoms: _294  and  _295
REMARK  121  A    between atoms: _295  and  _296
REMARK  122  A    between atoms: _296  and  _297
REMARK  123  A    between atoms: _306  and  _308
REMARK  124  A    between atoms: _308  and  _309
REMARK  125  A    between atoms: _308  and  _311
REMARK  126  A    between atoms: _311  and  _312
REMARK  127  A    between atoms: _315  and  _317
REMARK  128  A    between atoms: _317  and  _318
REMARK  129  A    between atoms: _317  and  _320
REMARK  130  A    between atoms: _320  and  _321
REMARK  131  A    between atoms: _324  and  _326
REMARK  132  A    between atoms: _326  and  _327
REMARK  133  A    between atoms: _326  and  _329
REMARK  134  A    between atoms: _329  and  _330
REMARK  135  A    between atoms: _333  and  _335
REMARK  136  A    between atoms: _335  and  _336
REMARK  137  A    between atoms: _335  and  _338
REMARK  138  A    between atoms: _338  and  _339
REMARK  139  A    between atoms: _342  and  _344
REMARK  140  A    between atoms: _344  and  _345
REMARK  141  A    between atoms: _347  and  _349
REMARK  142  A    between atoms: _349  and  _350
REMARK  143  A    between atoms: _353  and  _355
REMARK  144  A    between atoms: _355  and  _356
REMARK  145  A    between atoms: _355  and  _358
REMARK  146  A    between atoms: _358  and  _359
REMARK  147  A    between atoms: _362  and  _364
REMARK  148  A    between atoms: _364  and  _365
REMARK  149  A    between atoms: _364  and  _367
REMARK  150  A    between atoms: _367  and  _368
REMARK  151  A    between atoms: _371  and  _373
REMARK  152  A    between atoms: _373  and  _374
REMARK  153  A    between atoms: _373  and  _376
REMARK  154  A    between atoms: _376  and  _377
REMARK  155  A    between atoms: _380  and  _382
REMARK  156  A    between atoms: _382  and  _383
REMARK  157  A    between atoms: _382  and  _385
REMARK  158  A    between atoms: _388  and  _390
REMARK  159  A    between atoms: _390  and  _391
REMARK  160  A    between atoms: _390  and  _393
REMARK  161  A    between atoms: _393  and  _394
REMARK  162  A    between atoms: _394  and  _395
REMARK  163  A    between atoms: _397  and  _399
REMARK  164  A    between atoms: _399  and  _400
REMARK  165  A    between atoms: _399  and  _402
REMARK  166  A    between atoms: _402  and  _403
REMARK  167  A    between atoms: _406  and  _408
REMARK  168  A    between atoms: _408  and  _409
REMARK  169  A    between atoms: _411  and  _413
REMARK  170  A    between atoms: _413  and  _414
REMARK  171  A    between atoms: _416  and  _418
REMARK  172  A    between atoms: _418  and  _419
REMARK  173  A    between atoms: _418  and  _421
REMARK  174  A    between atoms: _421  and  _422
REMARK  175  A    between atoms: _425  and  _427
REMARK  176  A    between atoms: _427  and  _428
REMARK  177  A    between atoms: _430  and  _432
REMARK  178  A    between atoms: _432  and  _433
REMARK  179  A    between atoms: _435  and  _437
REMARK  180  A    between atoms: _437  and  _438
REMARK  181  A    between atoms: _437  and  _440
REMARK  182  A    between atoms: _440  and  _441
REMARK  183  A    between atoms: _447  and  _449
REMARK  184  A    between atoms: _449  and  _450
REMARK  185  A    between atoms: _449  and  _452
REMARK  186  A    between atoms: _452  and  _453
REMARK  187  A    between atoms: _456  and  _458
REMARK  188  A    between atoms: _458  and  _459
REMARK  189  A    between atoms: _458  and  _461
REMARK  190  A    between atoms: _464  and  _466
REMARK  191  A    between atoms: _466  and  _467
REMARK  192  A    between atoms: _466  and  _469
REMARK  193  A    between atoms: _469  and  _470
REMARK  194  A    between atoms: _473  and  _475
REMARK  195  A    between atoms: _475  and  _476
REMARK  196  A    between atoms: _475  and  _478
REMARK  197  A    between atoms: _478  and  _479
REMARK  198  A    between atoms: _483  and  _484
REMARK  199  A    between atoms: _489  and  _491
REMARK  200  A    between atoms: _491  and  _492
REMARK  201  A    between atoms: _495  and  _497
REMARK  202  A    between atoms: _497  and  _498
REMARK  203  A    between atoms: _497  and  _500
REMARK  204  A    between atoms: _500  and  _501
REMARK  205  A    between atoms: _506  and  _508
REMARK  206  A    between atoms: _508  and  _509
REMARK  207  A    between atoms: _508  and  _511
REMARK  208  A    between atoms: _511  and  _512
REMARK  209  A    between atoms: _515  and  _517
REMARK  210  A    between atoms: _517  and  _518
REMARK  211  A    between atoms: _517  and  _520
REMARK  212  A    between atoms: _520  and  _521
REMARK  213  A    between atoms: _524  and  _526
REMARK  214  A    between atoms: _526  and  _527
REMARK  215  A    between atoms: _529  and  _531
REMARK  216  A    between atoms: _531  and  _532
REMARK  217  A    between atoms: _531  and  _534
REMARK  218  A    between atoms: _534  and  _535
REMARK  219  A    between atoms: _535  and  _536
REMARK  220  A    between atoms: _536  and  _537
REMARK  221  A    between atoms: _546  and  _548
REMARK  222  A    between atoms: _548  and  _549
REMARK  223  A    between atoms: _548  and  _551
REMARK  224  A    between atoms: _551  and  _552
REMARK                            x       y       z     vdW  Elec       q    Type
REMARK                         _______ _______ _______ _____ _____    ______ ____
ROOT
ATOM      1  CA  VAL A   1      32.504  31.101   5.300  0.00  0.00    +0.133 C 
ENDROOT
BRANCH   1   2
ATOM      2  CB  VAL A   1      31.823  30.346   6.489  0.00  0.00    +0.023 C 
ATOM      3  CG2 VAL A   1      30.692  31.160   7.075  0.00  0.00    +0.002 C 
ATOM      4  CG1 VAL A   1      31.357  28.975   6.030  0.00  0.00    +0.002 C 
ENDBRANCH   1   2
BRANCH   1   5
ATOM      5  N   VAL A   1      31.594  31.351   4.221  0.00  0.00    -0.239 NA
ATOM      6  H   VAL A   1      31.380  30.567   3.571  0.00  0.00    +0.142 HD
ENDBRANCH   1   5
BRANCH   1   7
ATOM      7  C   VAL A   1      33.703  30.324   4.823  0.00  0.00    +0.224 C 
ATOM      8  O   VAL A   1      33.696  29.734   3.715  0.00  0.00    -0.287 OA
ENDBRANCH   1   7
TORSDOF 3
REMARK  Name = ../refined-set-2016/2nmz/2nmz_pocket.pdb
REMARK  224 active torsions:
REMARK  status: ('A' for Active; 'I' for Inactive)
REMARK    1  A    between atoms: _1  and  _3
REMARK    2  A    between atoms: _3  and  _4
REMARK    3  A    between atoms: _3  and  _6
REMARK    4  A    between atoms: _6  and  _7
REMARK    5  A    between atoms: _7  and  _8
REMARK    6  A    between atoms: _8  and  _9
REMARK    7  A    between atoms: _18  and  _20
REMARK    8  A    between atoms: _20  and  _21
REMARK    9  A    between atoms: _20  and  _23
REMARK   10  A    between atoms: _23  and  _24
REMARK   11  A    between atoms: _27  and  _29
REMARK   12  A    between atoms: _29  and  _30
REMARK   13  A    between atoms: _29  and  _32
REMARK   14  A    between atoms: _32  and  _33
REMARK   15  A    between atoms: _36  and  _38
REMARK   16  A    between atoms: _38  and  _39
REMARK   17  A    between atoms: _38  and  _41
REMARK   18  A    between atoms: _41  and  _42
REMARK   19  A    between atoms: _45  and  _47
REMARK   20  A    between atoms: _47  and  _48
REMARK   21  A    between atoms: _47  and  _50
REMARK   22  A    between atoms: _50  and  _51
REMARK   23  A    between atoms: _54  and  _56
REMARK   24  A    between atoms: _56  and  _57
REMARK   25  A    between atoms: _59  and  _61
REMARK   26  A    between atoms: _61  and  _62
REMARK   27  A    between atoms: _65  and  _67
REMARK   28  A    between atoms: _67  and  _68
REMARK   29  A    between atoms: _67  and  _70
REMARK   30  A    between atoms: _70  and  _71
REMARK   31  A    between atoms: _74  and  _76
REMARK   32  A    between atoms: _76  and  _77
REMARK   33  A    between atoms: _76  and  _79
REMARK   34  A    between atoms: _79  and  _80
REMARK   35  A    between atoms: _83  and  _85
REMARK   36  A    between atoms: _85  and  _86
REMARK   37  A    between atoms: _85  and  _88
REMARK   38  A    between atoms: _88  and  _89
REMARK   39  A    between atoms: _92  and  _94
REMARK   40  A    between atoms: _94  and  _95
REMARK   41  A    between atoms: _94  and  _97
REMARK   42  A    between atoms: _100  and  _102
REMARK   43  A    between atoms: _102  and  _103
REMARK   44  A    between atoms: _102  and  _105
REMARK   45  A    between atoms: _105  and  _106
REMARK   46  A    between atoms: _106  and  _107
REMARK   47  A    between atoms: _107  and  _108
REMARK   48  A    between atoms: _108  and  _109
REMARK   49  A    between atoms: _113  and  _115
REMARK   50  A    between atoms: _115  and  _116
REMARK   51  A    between atoms: _115  and  _118
REMARK   52  A    between atoms: _118  and  _119
REMARK   53  A    between atoms: _119  and  _120
REMARK   54  A    between atoms: _122  and  _124
REMARK   55  A    between atoms: _124  and  _125
REMARK   56  A    between atoms: _124  and  _127
REMARK   57  A    between atoms: _127  and  _128
REMARK   58  A    between atoms: _131  and  _133
REMARK   59  A    between atoms: _133  and  _134
REMARK   60  A    between atoms: _136  and  _138
REMARK   61  A    between atoms: _138  and  _139
REMARK   62  A    between atoms: _141  and  _143
REMARK   63  A    between atoms: _143  and  _144
REMARK   64  A    between atoms: _143  and  _146
REMARK   65  A    between atoms: _146  and  _147
REMARK   66  A    between atoms: _150  and  _152
REMARK   67  A    between atoms: _152  and  _153
REMARK   68  A    between atoms: _155  and  _157
REMARK   69  A    between atoms: _157  and  _158
REMARK   70  A    between atoms: _160  and  _162
REMARK   71  A    between atoms: _162  and  _163
REMARK   72  A    between atoms: _162  and  _165
REMARK   73  A    between atoms: _165  and  _166
REMARK   74  A    between atoms: _172  and  _174
REMARK   75  A    between atoms: _174  and  _175
REMARK   76  A    between atoms: _174  and  _177
REMARK   77  A    between atoms: _177  and  _178
REMARK   78  A    between atoms: _181  and  _183
REMARK   79  A    between atoms: _183  and  _184
REMARK   80  A    between atoms: _183  and  _186
REMARK   81  A    between atoms: _189  and  _191
REMARK   82  A    between atoms: _191  and  _192
REMARK   83  A    between atoms: _191  and  _194
REMARK   84  A    between atoms: _194  and  _195
REMARK   85  A    between atoms: _199  and  _200
REMARK   86  A    between atoms: _205  and  _207
REMARK   87  A    between atoms: _207  and  _208
REMARK   88  A    between atoms: _207  and  _210
REMARK   89  A    between atoms: _210  and  _211
REMARK   90  A    between atoms: _215  and  _216
REMARK   91  A    between atoms: _221  and  _223
REMARK   92  A    between atoms: _223  and  _224
REMARK   93  A    between atoms: _227  and  _229
REMARK   94  A    between atoms: _229  and  _230
REMARK   95  A    between atoms: _229  and  _232
REMARK   96  A    between atoms: _232  and  _233
REMARK   97  A    between atoms: _238  and  _240
REMARK   98  A    between atoms: _240  and  _241
REMARK   99  A    between atoms: _240  and  _243
REMARK  100  A    between atoms: _243  and  _244
REMARK  101  A    between atoms: _247  and  _249
REMARK  102  A    between atoms: _249  and  _250
REMARK  103  A    between atoms: _249  and  _252
REMARK  104  A    between atoms: _252  and  _253
REMARK  105  A    between atoms: _256  and  _258
REMARK  106  A    between atoms: _258  and  _259
REMARK  107  A    between atoms: _261  and  _263
REMARK  108  A    between atoms: _263  and  _264
REMARK  109  A    between atoms: _263  and  _266
REMARK  110  A    between atoms: _266  and  _267
REMARK  111  A    between atoms: _267  and  _268
REMARK  112  A    between atoms: _268  and  _269
REMARK  113  A    between atoms: _278  and  _280
REMARK  114  A    between atoms: _280  and  _281
REMARK  115  A    between atoms: _280  and  _283
REMARK  116  A    between atoms: _283  and  _284
REMARK  117  A    between atoms: _289  and  _291
REMARK  118  A    between atoms: _291  and  _292
REMARK  119  A    between atoms: _291  and  _294
REMARK  120  A    between atoms: _294  and  _295
REMARK  121  A    between atoms: _295  and  _296
REMARK  122  A    between atoms: _296  and  _297
REMARK  123  A    between atoms: _306  and  _308
REMARK  124  A    between atoms: _308  and  _309
REMARK  125  A    between atoms: _308  and  _311
REMARK  126  A    between atoms: _311  and  _312
REMARK  127  A    between atoms: _315  and  _317
REMARK  128  A    between atoms: _317  and  _318
REMARK  129  A    between atoms: _317  and  _320
REMARK  130  A    between atoms: _320  and  _321
REMARK  131  A    between atoms: _324  and  _326
REMARK  132  A    between atoms: _326  and  _327
REMARK  133  A    between atoms: _326  and  _329
REMARK  134  A    between atoms: _329  and  _330
REMARK  135  A    between atoms: _333  and  _335
REMARK  136  A    between atoms: _335  and  _336
REMARK  137  A    between atoms: _335  and  _338
REMARK  138  A    between atoms: _338  and  _339
REMARK  139  A    between atoms: _342  and  _344
REMARK  140  A    between atoms: _344  and  _345
REMARK  141  A    between atoms: _347  and  _349
REMARK  142  A    between atoms: _349  and  _350
REMARK  143  A    between atoms: _353  and  _355
REMARK  144  A    between atoms: _355  and  _356
REMARK  145  A    between atoms: _355  and  _358
REMARK  146  A    between atoms: _358  and  _359
REMARK  147  A    between atoms: _362  and  _364
REMARK  148  A    between atoms: _364  and  _365
REMARK  149  A    between atoms: _364  and  _367
REMARK  150  A    between atoms: _367  and  _368
REMARK  151  A    between atoms: _371  and  _373
REMARK  152  A    between atoms: _373  and  _374
REMARK  153  A    between atoms: _373  and  _376
REMARK  154  A    between atoms: _376  and  _377
REMARK  155  A    between atoms: _380  and  _382
REMARK  156  A    between atoms: _382  and  _383
REMARK  157  A    between atoms: _382  and  _385
REMARK  158  A    between atoms: _388  and  _390
REMARK  159  A    between atoms: _390  and  _391
REMARK  160  A    between atoms: _390  and  _393
REMARK  161  A    between atoms: _393  and  _394
REMARK  162  A    between atoms: _394  and  _395
REMARK  163  A    between atoms: _397  and  _399
REMARK  164  A    between atoms: _399  and  _400
REMARK  165  A    between atoms: _399  and  _402
REMARK  166  A    between atoms: _402  and  _403
REMARK  167  A    between atoms: _406  and  _408
REMARK  168  A    between atoms: _408  and  _409
REMARK  169  A    between atoms: _411  and  _413
REMARK  170  A    between atoms: _413  and  _414
REMARK  171  A    between atoms: _416  and  _418
REMARK  172  A    between atoms: _418  and  _419
REMARK  173  A    between atoms: _418  and  _421
REMARK  174  A    between atoms: _421  and  _422
REMARK  175  A    between atoms: _425  and  _427
REMARK  176  A    between atoms: _427  and  _428
REMARK  177  A    between atoms: _430  and  _432
REMARK  178  A    between atoms: _432  and  _433
REMARK  179  A    between atoms: _435  and  _437
REMARK  180  A    between atoms: _437  and  _438
REMARK  181  A    between atoms: _437  and  _440
REMARK  182  A    between atoms: _440  and  _441
REMARK  183  A    between atoms: _447  and  _449
REMARK  184  A    between atoms: _449  and  _450
REMARK  185  A    between atoms: _449  and  _452
REMARK  186  A    between atoms: _452  and  _453
REMARK  187  A    between atoms: _456  and  _458
REMARK  188  A    between atoms: _458  and  _459
REMARK  189  A    between atoms: _458  and  _461
REMARK  190  A    between atoms: _464  and  _466
REMARK  191  A    between atoms: _466  and  _467
REMARK  192  A    between atoms: _466  and  _469
REMARK  193  A    between atoms: _469  and  _470
REMARK  194  A    between atoms: _473  and  _475
REMARK  195  A    between atoms: _475  and  _476
REMARK  196  A    between atoms: _475  and  _478
REMARK  197  A    between atoms: _478  and  _479
REMARK  198  A    between atoms: _483  and  _484
REMARK  199  A    between atoms: _489  and  _491
REMARK  200  A    between atoms: _491  and  _492
REMARK  201  A    between atoms: _495  and  _497
REMARK  202  A    between atoms: _497  and  _498
REMARK  203  A    between atoms: _497  and  _500
REMARK  204  A    between atoms: _500  and  _501
REMARK  205  A    between atoms: _506  and  _508
REMARK  206  A    between atoms: _508  and  _509
REMARK  207  A    between atoms: _508  and  _511
REMARK  208  A    between atoms: _511  and  _512
REMARK  209  A    between atoms: _515  and  _517
REMARK  210  A    between atoms: _517  and  _518
REMARK  211  A    between atoms: _517  and  _520
REMARK  212  A    between atoms: _520  and  _521
REMARK  213  A    between atoms: _524  and  _526
REMARK  214  A    between atoms: _526  and  _527
REMARK  215  A    between atoms: _529  and  _531
REMARK  216  A    between atoms: _531  and  _532
REMARK  217  A    between atoms: _531  and  _534
REMARK  218  A    between atoms: _534  and  _535
REMARK  219  A    between atoms: _535  and  _536
REMARK  220  A    between atoms: _536  and  _537
REMARK  221  A    between atoms: _546  and  _548
REMARK  222  A    between atoms: _548  and  _549
REMARK  223  A    between atoms: _548  and  _551
REMARK  224  A    between atoms: _551  and  _552
REMARK                            x       y       z     vdW  Elec       q    Type
REMARK                         _______ _______ _______ _____ _____    ______ ____
ROOT
ATOM      1  CA  LEU A   1      33.475  27.768  10.073  0.00  0.00    +0.133 C 
ENDROOT
BRANCH   1   2
ATOM      2  N   LEU A   1      33.744  26.876  11.204  0.00  0.00    -0.239 NA
ATOM      3  H   LEU A   1      33.033  26.799  11.959  0.00  0.00    +0.142 HD
ENDBRANCH   1   2
BRANCH   1   4
ATOM      4  C   LEU A   1      33.791  29.179  10.514  0.00  0.00    +0.224 C 
ATOM      5  O   LEU A   1      33.382  29.578  11.600  0.00  0.00    -0.287 OA
ENDBRANCH   1   4
BRANCH   1   6
ATOM      6  CB  LEU A   1      32.027  27.628   9.629  0.00  0.00    +0.025 C 
BRANCH   6   7
ATOM      7  CG  LEU A   1      31.561  26.212   9.398  0.00  0.00    +0.002 C 
ATOM      8  CD2 LEU A   1      30.122  26.188   8.949  0.00  0.00    +0.000 C 
ATOM      9  CD1 LEU A   1      32.431  25.436   8.410  0.00  0.00    +0.000 C 
ENDBRANCH   6   7
ENDBRANCH   1   6
TORSDOF 4
REMARK  Name = ../refined-set-2016/2nmz/2nmz_pocket.pdb
REMARK  224 active torsions:
REMARK  status: ('A' for Active; 'I' for Inactive)
REMARK    1  A    between atoms: _1  and  _3
REMARK    2  A    between atoms: _3  and  _4
REMARK    3  A    between atoms: _3  and  _6
REMARK    4  A    between atoms: _6  and  _7
REMARK    5  A    between atoms: _7  and  _8
REMARK    6  A    between atoms: _8  and  _9
REMARK    7  A    between atoms: _18  and  _20
REMARK    8  A    between atoms: _20  and  _21
REMARK    9  A    between atoms: _20  and  _23
REMARK   10  A    between atoms: _23  and  _24
REMARK   11  A    between atoms: _27  and  _29
REMARK   12  A    between atoms: _29  and  _30
REMARK   13  A    between atoms: _29  and  _32
REMARK   14  A    between atoms: _32  and  _33
REMARK   15  A    between atoms: _36  and  _38
REMARK   16  A    between atoms: _38  and  _39
REMARK   17  A    between atoms: _38  and  _41
REMARK   18  A    between atoms: _41  and  _42
REMARK   19  A    between atoms: _45  and  _47
REMARK   20  A    between atoms: _47  and  _48
REMARK   21  A    between atoms: _47  and  _50
REMARK   22  A    between atoms: _50  and  _51
REMARK   23  A    between atoms: _54  and  _56
REMARK   24  A    between atoms: _56  and  _57
REMARK   25  A    between atoms: _59  and  _61
REMARK   26  A    between atoms: _61  and  _62
REMARK   27  A    between atoms: _65  and  _67
REMARK   28  A    between atoms: _67  and  _68
REMARK   29  A    between atoms: _67  and  _70
REMARK   30  A    between atoms: _70  and  _71
REMARK   31  A    between atoms: _74  and  _76
REMARK   32  A    between atoms: _76  and  _77
REMARK   33  A    between atoms: _76  and  _79
REMARK   34  A    between atoms: _79  and  _80
REMARK   35  A    between atoms: _83  and  _85
REMARK   36  A    between atoms: _85  and  _86
REMARK   37  A    between atoms: _85  and  _88
REMARK   38  A    between atoms: _88  and  _89
REMARK   39  A    between atoms: _92  and  _94
REMARK   40  A    between atoms: _94  and  _95
REMARK   41  A    between atoms: _94  and  _97
REMARK   42  A    between atoms: _100  and  _102
REMARK   43  A    between atoms: _102  and  _103
REMARK   44  A    between atoms: _102  and  _105
REMARK   45  A    between atoms: _105  and  _106
REMARK   46  A    between atoms: _106  and  _107
REMARK   47  A    between atoms: _107  and  _108
REMARK   48  A    between atoms: _108  and  _109
REMARK   49  A    between atoms: _113  and  _115
REMARK   50  A    between atoms: _115  and  _116
REMARK   51  A    between atoms: _115  and  _118
REMARK   52  A    between atoms: _118  and  _119
REMARK   53  A    between atoms: _119  and  _120
REMARK   54  A    between atoms: _122  and  _124
REMARK   55  A    between atoms: _124  and  _125
REMARK   56  A    between atoms: _124  and  _127
REMARK   57  A    between atoms: _127  and  _128
REMARK   58  A    between atoms: _131  and  _133
REMARK   59  A    between atoms: _133  and  _134
REMARK   60  A    between atoms: _136  and  _138
REMARK   61  A    between atoms: _138  and  _139
REMARK   62  A    between atoms: _141  and  _143
REMARK   63  A    between atoms: _143  and  _144
REMARK   64  A    between atoms: _143  and  _146
REMARK   65  A    between atoms: _146  and  _147
REMARK   66  A    between atoms: _150  and  _152
REMARK   67  A    between atoms: _152  and  _153
REMARK   68  A    between atoms: _155  and  _157
REMARK   69  A    between atoms: _157  and  _158
REMARK   70  A    between atoms: _160  and  _162
REMARK   71  A    between atoms: _162  and  _163
REMARK   72  A    between atoms: _162  and  _165
REMARK   73  A    between atoms: _165  and  _166
REMARK   74  A    between atoms: _172  and  _174
REMARK   75  A    between atoms: _174  and  _175
REMARK   76  A    between atoms: _174  and  _177
REMARK   77  A    between atoms: _177  and  _178
REMARK   78  A    between atoms: _181  and  _183
REMARK   79  A    between atoms: _183  and  _184
REMARK   80  A    between atoms: _183  and  _186
REMARK   81  A    between atoms: _189  and  _191
REMARK   82  A    between atoms: _191  and  _192
REMARK   83  A    between atoms: _191  and  _194
REMARK   84  A    between atoms: _194  and  _195
REMARK   85  A    between atoms: _199  and  _200
REMARK   86  A    between atoms: _205  and  _207
REMARK   87  A    between atoms: _207  and  _208
REMARK   88  A    between atoms: _207  and  _210
REMARK   89  A    between atoms: _210  and  _211
REMARK   90  A    between atoms: _215  and  _216
REMARK   91  A    between atoms: _221  and  _223
REMARK   92  A    between atoms: _223  and  _224
REMARK   93  A    between atoms: _227  and  _229
REMARK   94  A    between atoms: _229  and  _230
REMARK   95  A    between atoms: _229  and  _232
REMARK   96  A    between atoms: _232  and  _233
REMARK   97  A    between atoms: _238  and  _240
REMARK   98  A    between atoms: _240  and  _241
REMARK   99  A    between atoms: _240  and  _243
REMARK  100  A    between atoms: _243  and  _244
REMARK  101  A    between atoms: _247  and  _249
REMARK  102  A    between atoms: _249  and  _250
REMARK  103  A    between atoms: _249  and  _252
REMARK  104  A    between atoms: _252  and  _253
REMARK  105  A    between atoms: _256  and  _258
REMARK  106  A    between atoms: _258  and  _259
REMARK  107  A    between atoms: _261  and  _263
REMARK  108  A    between atoms: _263  and  _264
REMARK  109  A    between atoms: _263  and  _266
REMARK  110  A    between atoms: _266  and  _267
REMARK  111  A    between atoms: _267  and  _268
REMARK  112  A    between atoms: _268  and  _269
REMARK  113  A    between atoms: _278  and  _280
REMARK  114  A    between atoms: _280  and  _281
REMARK  115  A    between atoms: _280  and  _283
REMARK  116  A    between atoms: _283  and  _284
REMARK  117  A    between atoms: _289  and  _291
REMARK  118  A    between atoms: _291  and  _292
REMARK  119  A    between atoms: _291  and  _294
REMARK  120  A    between atoms: _294  and  _295
REMARK  121  A    between atoms: _295  and  _296
REMARK  122  A    between atoms: _296  and  _297
REMARK  123  A    between atoms: _306  and  _308
REMARK  124  A    between atoms: _308  and  _309
REMARK  125  A    between atoms: _308  and  _311
REMARK  126  A    between atoms: _311  and  _312
REMARK  127  A    between atoms: _315  and  _317
REMARK  128  A    between atoms: _317  and  _318
REMARK  129  A    between atoms: _317  and  _320
REMARK  130  A    between atoms: _320  and  _321
REMARK  131  A    between atoms: _324  and  _326
REMARK  132  A    between atoms: _326  and  _327
REMARK  133  A    between atoms: _326  and  _329
REMARK  134  A    between atoms: _329  and  _330
REMARK  135  A    between atoms: _333  and  _335
REMARK  136  A    between atoms: _335  and  _336
REMARK  137  A    between atoms: _335  and  _338
REMARK  138  A    between atoms: _338  and  _339
REMARK  139  A    between atoms: _342  and  _344
REMARK  140  A    between atoms: _344  and  _345
REMARK  141  A    between atoms: _347  and  _349
REMARK  142  A    between atoms: _349  and  _350
REMARK  143  A    between atoms: _353  and  _355
REMARK  144  A    between atoms: _355  and  _356
REMARK  145  A    between atoms: _355  and  _358
REMARK  146  A    between atoms: _358  and  _359
REMARK  147  A    between atoms: _362  and  _364
REMARK  148  A    between atoms: _364  and  _365
REMARK  149  A    between atoms: _364  and  _367
REMARK  150  A    between atoms: _367  and  _368
REMARK  151  A    between atoms: _371  and  _373
REMARK  152  A    between atoms: _373  and  _374
REMARK  153  A    between atoms: _373  and  _376
REMARK  154  A    between atoms: _376  and  _377
REMARK  155  A    between atoms: _380  and  _382
REMARK  156  A    between atoms: _382  and  _383
REMARK  157  A    between atoms: _382  and  _385
REMARK  158  A    between atoms: _388  and  _390
REMARK  159  A    between atoms: _390  and  _391
REMARK  160  A    between atoms: _390  and  _393
REMARK  161  A    between atoms: _393  and  _394
REMARK  162  A    between atoms: _394  and  _395
REMARK  163  A    between atoms: _397  and  _399
REMARK  164  A    between atoms: _399  and  _400
REMARK  165  A    between atoms: _399  and  _402
REMARK  166  A    between atoms: _402  and  _403
REMARK  167  A    between atoms: _406  and  _408
REMARK  168  A    between atoms: _408  and  _409
REMARK  169  A    between atoms: _411  and  _413
REMARK  170  A    between atoms: _413  and  _414
REMARK  171  A    between atoms: _416  and  _418
REMARK  172  A    between atoms: _418  and  _419
REMARK  173  A    between atoms: _418  and  _421
REMARK  174  A    between atoms: _421  and  _422
REMARK  175  A    between atoms: _425  and  _427
REMARK  176  A    between atoms: _427  and  _428
REMARK  177  A    between atoms: _430  and  _432
REMARK  178  A    between atoms: _432  and  _433
REMARK  179  A    between atoms: _435  and  _437
REMARK  180  A    between atoms: _437  and  _438
REMARK  181  A    between atoms: _437  and  _440
REMARK  182  A    between atoms: _440  and  _441
REMARK  183  A    between atoms: _447  and  _449
REMARK  184  A    between atoms: _449  and  _450
REMARK  185  A    between atoms: _449  and  _452
REMARK  186  A    between atoms: _452  and  _453
REMARK  187  A    between atoms: _456  and  _458
REMARK  188  A    between atoms: _458  and  _459
REMARK  189  A    between atoms: _458  and  _461
REMARK  190  A    between atoms: _464  and  _466
REMARK  191  A    between atoms: _466  and  _467
REMARK  192  A    between atoms: _466  and  _469
REMARK  193  A    between atoms: _469  and  _470
REMARK  194  A    between atoms: _473  and  _475
REMARK  195  A    between atoms: _475  and  _476
REMARK  196  A    between atoms: _475  and  _478
REMARK  197  A    between atoms: _478  and  _479
REMARK  198  A    between atoms: _483  and  _484
REMARK  199  A    between atoms: _489  and  _491
REMARK  200  A    between atoms: _491  and  _492
REMARK  201  A    between atoms: _495  and  _497
REMARK  202  A    between atoms: _497  and  _498
REMARK  203  A    between atoms: _497  and  _500
REMARK  204  A    between atoms: _500  and  _501
REMARK  205  A    between atoms: _506  and  _508
REMARK  206  A    between atoms: _508  and  _509
REMARK  207  A    between atoms: _508  and  _511
REMARK  208  A    between atoms: _511  and  _512
REMARK  209  A    between atoms: _515  and  _517
REMARK  210  A    between atoms: _517  and  _518
REMARK  211  A    between atoms: _517  and  _520
REMARK  212  A    between atoms: _520  and  _521
REMARK  213  A    between atoms: _524  and  _526
REMARK  214  A    between atoms: _526  and  _527
REMARK  215  A    between atoms: _529  and  _531
REMARK  216  A    between atoms: _531  and  _532
REMARK  217  A    between atoms: _531  and  _534
REMARK  218  A    between atoms: _534  and  _535
REMARK  219  A    between atoms: _535  and  _536
REMARK  220  A    between atoms: _536  and  _537
REMARK  221  A    between atoms: _546  and  _548
REMARK  222  A    between atoms: _548  and  _549
REMARK  223  A    between atoms: _548  and  _551
REMARK  224  A    between atoms: _551  and  _552
REMARK                            x       y       z     vdW  Elec       q    Type
REMARK                         _______ _______ _______ _____ _____    ______ ____
ROOT
ATOM      1  C   ILE A   5      29.014  28.756  18.013  0.00  0.00    +0.241 C 
ATOM      2  N   ILE A   6      28.776  27.996  19.084  0.00  0.00    -0.297 N 
ATOM      3  H   ILE A   6      28.242  28.419  19.870  0.00  0.00    +0.150 HD
ATOM      4  O   ILE A   5      29.691  28.400  17.069  0.00  0.00    -0.273 OA
ENDROOT
BRANCH   2   5
ATOM      5  CA  ILE A   6      29.209  26.631  19.224  0.00  0.00    +0.149 C 
BRANCH   5   6
ATOM      6  C   ILE A   6      28.001  25.738  18.931  0.00  0.00    +0.241 C 
ATOM      7  O   ILE A   6      27.041  25.747  19.713  0.00  0.00    -0.273 OA
ATOM      8  N   GLY A   7      28.015  25.058  17.803  0.00  0.00    -0.295 N 
ATOM      9  H   GLY A   7      28.857  25.120  17.196  0.00  0.00    +0.150 HD
BRANCH   8  10
ATOM     10  CA  GLY A   7      26.909  24.227  17.371  0.00  0.00    +0.176 C 
BRANCH  10  11
ATOM     11  C   GLY A   7      27.084  22.779  17.743  0.00  0.00    +0.243 C 
ATOM     12  O   GLY A   7      28.020  22.350  18.452  0.00  0.00    -0.273 OA
ATOM     13  N   ARG A   8      26.120  21.961  17.289  0.00  0.00    -0.297 N 
ATOM     14  H   ARG A   8      25.439  22.317  16.589  0.00  0.00    +0.150 HD
BRANCH  13  15
ATOM     15  CA  ARG A   8      26.010  20.605  17.750  0.00  0.00    +0.149 C 
BRANCH  15  16
ATOM     16  C   ARG A   8      27.242  19.759  17.429  0.00  0.00    +0.241 C 
ATOM     17  O   ARG A   8      27.537  18.812  18.140  0.00  0.00    -0.273 OA
ATOM     18  N   ASN A   9      27.927  20.092  16.318  0.00  0.00    -0.298 N 
ATOM     19  H   ASN A   9      27.631  20.890  15.720  0.00  0.00    +0.150 HD
BRANCH  18  20
ATOM     20  CA  ASN A   9      29.109  19.285  15.982  0.00  0.00    +0.146 C 
BRANCH  20  21
ATOM     21  C   ASN A   9      30.127  19.262  17.100  0.00  0.00    +0.227 C 
ATOM     22  O   ASN A   9      30.810  18.271  17.274  0.00  0.00    -0.286 OA
ENDBRANCH  20  21
BRANCH  20  23
ATOM     23  CB  ASN A   9      29.714  19.777  14.666  0.00  0.00    +0.112 C 
BRANCH  23  24
ATOM     24  CG  ASN A   9      30.438  21.105  14.799  0.00  0.00    +0.222 C 
ATOM     25  OD1 ASN A   9      29.836  22.092  15.253  0.00  0.00    -0.275 OA
ATOM     26  ND2 ASN A   9      31.683  21.132  14.375  0.00  0.00    -0.329 N 
ATOM     27 HD21 ASN A   9      32.225  22.019  14.409  0.00  0.00    +0.145 HD
ATOM     28 HD22 ASN A   9      32.126  20.266  14.006  0.00  0.00    +0.145 HD
ENDBRANCH  23  24
ENDBRANCH  20  23
ENDBRANCH  18  20
ENDBRANCH  15  16
BRANCH  15  29
ATOM     29  CB  ARG A   8      24.758  19.903  17.224  0.00  0.00    +0.033 C 
BRANCH  29  30
ATOM     30  CG  ARG A   8      23.478  20.531  17.770  0.00  0.00    +0.045 C 
BRANCH  30  31
ATOM     31  CD  ARG A   8      22.222  19.732  17.369  0.00  0.00    +0.174 C 
BRANCH  31  32
ATOM     32  NE  ARG A   8      22.040  19.725  15.918  0.00  0.00    -0.265 N 
ATOM     33  HE  ARG A   8      21.548  20.548  15.515  0.00  0.00    +0.259 HD
ATOM     34  CZ  ARG A   8      22.427  18.794  15.051  0.00  0.00    +0.342 C 
ATOM     35  NH2 ARG A   8      22.961  17.656  15.460  0.00  0.00    -0.292 N 
ATOM     36 HH21 ARG A   8      23.085  17.476  16.477  0.00  0.00    +0.255 HD
ATOM     37 HH22 ARG A   8      23.257  16.941  14.765  0.00  0.00    +0.255 HD
ATOM     38  NH1 ARG A   8      22.270  18.999  13.757  0.00  0.00    -0.292 N 
ATOM     39 HH11 ARG A   8      21.845  19.886  13.419  0.00  0.00    +0.255 HD
ATOM     40 HH12 ARG A   8      22.571  18.274  13.075  0.00  0.00    +0.255 HD
ENDBRANCH  31  32
ENDBRANCH  30  31
ENDBRANCH  29  30
ENDBRANCH  15  29
ENDBRANCH  13  15
ENDBRANCH  10  11
ENDBRANCH   8  10
ENDBRANCH   5   6
BRANCH   5  41
ATOM     41  CB  ILE A   6      29.778  26.294  20.609  0.00  0.00    +0.027 C 
ATOM     42  CG2 ILE A   6      30.245  24.847  20.660  0.00  0.00    +0.002 C 
BRANCH  41  43
ATOM     43  CG1 ILE A   6      30.856  27.283  21.027  0.00  0.00    +0.002 C 
ATOM     44  CD1 ILE A   6      32.000  27.425  20.051  0.00  0.00    +0.000 C 
ENDBRANCH  41  43
ENDBRANCH   5  41
ENDBRANCH   2   5
BRANCH   1  45
ATOM     45  CA  ILE A   5      28.310  30.114  18.087  0.00  0.00    +0.149 C 
BRANCH  45  48
ATOM     46  C   ASN A   4      29.471  32.227  18.335  0.00  0.00    +0.241 C 
ATOM     47  O   ASN A   4      28.887  32.457  19.414  0.00  0.00    -0.273 OA
ATOM     48  N   ILE A   5      29.253  31.133  17.624  0.00  0.00    -0.297 N 
ATOM     49  H   ILE A   5      29.758  30.995  16.725  0.00  0.00    +0.150 HD
BRANCH  46  50
ATOM     50  CA  ASN A   4      30.428  33.273  17.757  0.00  0.00    +0.158 C 
BRANCH  50  52
ATOM     51  C   ALA A   3      28.808  34.816  16.727  0.00  0.00    +0.241 C 
ATOM     52  N   ASN A   4      29.735  34.574  17.690  0.00  0.00    -0.297 N 
ATOM     53  H   ASN A   4      29.958  35.313  18.387  0.00  0.00    +0.150 HD
ATOM     54  O   ALA A   3      28.566  33.997  15.835  0.00  0.00    -0.273 OA
BRANCH  51  55
ATOM     55  CA  ALA A   3      28.026  36.159  16.726  0.00  0.00    +0.149 C 
ATOM     56  CB  ALA A   3      26.791  35.982  17.650  0.00  0.00    +0.031 C 
BRANCH  55  59
ATOM     57  C   PRO A   2      27.458  37.892  15.165  0.00  0.00    +0.241 C 
ATOM     58  O   PRO A   2      27.614  38.800  15.996  0.00  0.00    -0.273 OA
ATOM     59  N   ALA A   3      27.641  36.599  15.443  0.00  0.00    -0.297 N 
ATOM     60  H   ALA A   3      27.495  35.896  14.691  0.00  0.00    +0.150 HD
BRANCH  57  64
ATOM     61  C   THR A   1      28.471  36.905  12.438  0.00  0.00    +0.244 C 
ATOM     62  O   THR A   1      29.455  37.501  12.886  0.00  0.00    -0.273 OA
ATOM     63  N   PRO A   2      27.232  37.239  12.776  0.00  0.00    -0.272 N 
ATOM     64  CA  PRO A   2      27.008  38.245  13.793  0.00  0.00    +0.152 C 
ATOM     65  CB  PRO A   2      25.489  38.476  13.733  0.00  0.00    +0.031 C 
ATOM     66  CG  PRO A   2      25.070  37.949  12.391  0.00  0.00    +0.024 C 
ATOM     67  CD  PRO A   2      26.015  36.802  12.112  0.00  0.00    +0.094 C 
BRANCH  61  68
ATOM     68  CA  THR A   1      28.705  35.720  11.500  0.00  0.00    +0.172 C 
BRANCH  68  69
ATOM     69  N   THR A   1      29.832  35.993  10.614  0.00  0.00    -0.236 NA
ATOM     70  H   THR A   1      30.713  35.451  10.727  0.00  0.00    +0.142 HD
ENDBRANCH  68  69
BRANCH  68  71
ATOM     71  CB  THR A   1      28.932  34.427  12.316  0.00  0.00    +0.135 C 
ATOM     72  CG2 THR A   1      30.214  34.428  13.119  0.00  0.00    +0.034 C 
BRANCH  71  73
ATOM     73  OG1 THR A   1      27.781  34.309  13.178  0.00  0.00    -0.383 OA
ATOM     74  HG1 THR A   1      27.867  33.493  13.732  0.00  0.00    +0.210 HD
ENDBRANCH  71  73
ENDBRANCH  68  71
ENDBRANCH  61  68
ENDBRANCH  57  64
ENDBRANCH  55  59
ENDBRANCH  51  55
ENDBRANCH  50  52
BRANCH  50  75
ATOM     75  CB  ASN A   4      31.640  33.335  18.673  0.00  0.00    +0.114 C 
BRANCH  75  76
ATOM     76  CG  ASN A   4      32.687  34.346  18.153  0.00  0.00    +0.222 C 
ATOM     77  ND2 ASN A   4      33.377  34.946  19.071  0.00  0.00    -0.329 N 
ATOM     78 HD21 ASN A   4      33.160  34.783  20.075  0.00  0.00    +0.145 HD
ATOM     79 HD22 ASN A   4      34.148  35.591  18.804  0.00  0.00    +0.145 HD
ATOM     80  OD1 ASN A   4      32.880  34.485  16.944  0.00  0.00    -0.275 OA
ENDBRANCH  75  76
ENDBRANCH  50  75
ENDBRANCH  46  50
ENDBRANCH  45  48
BRANCH  45  81
ATOM     81  CB  ILE A   5      27.019  30.069  17.291  0.00  0.00    +0.027 C 
ATOM     82  CG2 ILE A   5      26.286  31.371  17.352  0.00  0.00    +0.002 C 
BRANCH  81  83
ATOM     83  CG1 ILE A   5      27.297  29.590  15.852  0.00  0.00    +0.002 C 
ATOM     84  CD1 ILE A   5      26.195  29.465  15.097  0.00  0.00    +0.000 C 
ENDBRANCH  81  83
ENDBRANCH  45  81
ENDBRANCH   1  45
TORSDOF 31
REMARK  Name = ../refined-set-2016/2nmz/2nmz_pocket.pdb
REMARK  224 active torsions:
REMARK  status: ('A' for Active; 'I' for Inactive)
REMARK    1  A    between atoms: _1  and  _3
REMARK    2  A    between atoms: _3  and  _4
REMARK    3  A    between atoms: _3  and  _6
REMARK    4  A    between atoms: _6  and  _7
REMARK    5  A    between atoms: _7  and  _8
REMARK    6  A    between atoms: _8  and  _9
REMARK    7  A    between atoms: _18  and  _20
REMARK    8  A    between atoms: _20  and  _21
REMARK    9  A    between atoms: _20  and  _23
REMARK   10  A    between atoms: _23  and  _24
REMARK   11  A    between atoms: _27  and  _29
REMARK   12  A    between atoms: _29  and  _30
REMARK   13  A    between atoms: _29  and  _32
REMARK   14  A    between atoms: _32  and  _33
REMARK   15  A    between atoms: _36  and  _38
REMARK   16  A    between atoms: _38  and  _39
REMARK   17  A    between atoms: _38  and  _41
REMARK   18  A    between atoms: _41  and  _42
REMARK   19  A    between atoms: _45  and  _47
REMARK   20  A    between atoms: _47  and  _48
REMARK   21  A    between atoms: _47  and  _50
REMARK   22  A    between atoms: _50  and  _51
REMARK   23  A    between atoms: _54  and  _56
REMARK   24  A    between atoms: _56  and  _57
REMARK   25  A    between atoms: _59  and  _61
REMARK   26  A    between atoms: _61  and  _62
REMARK   27  A    between atoms: _65  and  _67
REMARK   28  A    between atoms: _67  and  _68
REMARK   29  A    between atoms: _67  and  _70
REMARK   30  A    between atoms: _70  and  _71
REMARK   31  A    between atoms: _74  and  _76
REMARK   32  A    between atoms: _76  and  _77
REMARK   33  A    between atoms: _76  and  _79
REMARK   34  A    between atoms: _79  and  _80
REMARK   35  A    between atoms: _83  and  _85
REMARK   36  A    between atoms: _85  and  _86
REMARK   37  A    between atoms: _85  and  _88
REMARK   38  A    between atoms: _88  and  _89
REMARK   39  A    between atoms: _92  and  _94
REMARK   40  A    between atoms: _94  and  _95
REMARK   41  A    between atoms: _94  and  _97
REMARK   42  A    between atoms: _100  and  _102
REMARK   43  A    between atoms: _102  and  _103
REMARK   44  A    between atoms: _102  and  _105
REMARK   45  A    between atoms: _105  and  _106
REMARK   46  A    between atoms: _106  and  _107
REMARK   47  A    between atoms: _107  and  _108
REMARK   48  A    between atoms: _108  and  _109
REMARK   49  A    between atoms: _113  and  _115
REMARK   50  A    between atoms: _115  and  _116
REMARK   51  A    between atoms: _115  and  _118
REMARK   52  A    between atoms: _118  and  _119
REMARK   53  A    between atoms: _119  and  _120
REMARK   54  A    between atoms: _122  and  _124
REMARK   55  A    between atoms: _124  and  _125
REMARK   56  A    between atoms: _124  and  _127
REMARK   57  A    between atoms: _127  and  _128
REMARK   58  A    between atoms: _131  and  _133
REMARK   59  A    between atoms: _133  and  _134
REMARK   60  A    between atoms: _136  and  _138
REMARK   61  A    between atoms: _138  and  _139
REMARK   62  A    between atoms: _141  and  _143
REMARK   63  A    between atoms: _143  and  _144
REMARK   64  A    between atoms: _143  and  _146
REMARK   65  A    between atoms: _146  and  _147
REMARK   66  A    between atoms: _150  and  _152
REMARK   67  A    between atoms: _152  and  _153
REMARK   68  A    between atoms: _155  and  _157
REMARK   69  A    between atoms: _157  and  _158
REMARK   70  A    between atoms: _160  and  _162
REMARK   71  A    between atoms: _162  and  _163
REMARK   72  A    between atoms: _162  and  _165
REMARK   73  A    between atoms: _165  and  _166
REMARK   74  A    between atoms: _172  and  _174
REMARK   75  A    between atoms: _174  and  _175
REMARK   76  A    between atoms: _174  and  _177
REMARK   77  A    between atoms: _177  and  _178
REMARK   78  A    between atoms: _181  and  _183
REMARK   79  A    between atoms: _183  and  _184
REMARK   80  A    between atoms: _183  and  _186
REMARK   81  A    between atoms: _189  and  _191
REMARK   82  A    between atoms: _191  and  _192
REMARK   83  A    between atoms: _191  and  _194
REMARK   84  A    between atoms: _194  and  _195
REMARK   85  A    between atoms: _199  and  _200
REMARK   86  A    between atoms: _205  and  _207
REMARK   87  A    between atoms: _207  and  _208
REMARK   88  A    between atoms: _207  and  _210
REMARK   89  A    between atoms: _210  and  _211
REMARK   90  A    between atoms: _215  and  _216
REMARK   91  A    between atoms: _221  and  _223
REMARK   92  A    between atoms: _223  and  _224
REMARK   93  A    between atoms: _227  and  _229
REMARK   94  A    between atoms: _229  and  _230
REMARK   95  A    between atoms: _229  and  _232
REMARK   96  A    between atoms: _232  and  _233
REMARK   97  A    between atoms: _238  and  _240
REMARK   98  A    between atoms: _240  and  _241
REMARK   99  A    between atoms: _240  and  _243
REMARK  100  A    between atoms: _243  and  _244
REMARK  101  A    between atoms: _247  and  _249
REMARK  102  A    between atoms: _249  and  _250
REMARK  103  A    between atoms: _249  and  _252
REMARK  104  A    between atoms: _252  and  _253
REMARK  105  A    between atoms: _256  and  _258
REMARK  106  A    between atoms: _258  and  _259
REMARK  107  A    between atoms: _261  and  _263
REMARK  108  A    between atoms: _263  and  _264
REMARK  109  A    between atoms: _263  and  _266
REMARK  110  A    between atoms: _266  and  _267
REMARK  111  A    between atoms: _267  and  _268
REMARK  112  A    between atoms: _268  and  _269
REMARK  113  A    between atoms: _278  and  _280
REMARK  114  A    between atoms: _280  and  _281
REMARK  115  A    between atoms: _280  and  _283
REMARK  116  A    between atoms: _283  and  _284
REMARK  117  A    between atoms: _289  and  _291
REMARK  118  A    between atoms: _291  and  _292
REMARK  119  A    between atoms: _291  and  _294
REMARK  120  A    between atoms: _294  and  _295
REMARK  121  A    between atoms: _295  and  _296
REMARK  122  A    between atoms: _296  and  _297
REMARK  123  A    between atoms: _306  and  _308
REMARK  124  A    between atoms: _308  and  _309
REMARK  125  A    between atoms: _308  and  _311
REMARK  126  A    between atoms: _311  and  _312
REMARK  127  A    between atoms: _315  and  _317
REMARK  128  A    between atoms: _317  and  _318
REMARK  129  A    between atoms: _317  and  _320
REMARK  130  A    between atoms: _320  and  _321
REMARK  131  A    between atoms: _324  and  _326
REMARK  132  A    between atoms: _326  and  _327
REMARK  133  A    between atoms: _326  and  _329
REMARK  134  A    between atoms: _329  and  _330
REMARK  135  A    between atoms: _333  and  _335
REMARK  136  A    between atoms: _335  and  _336
REMARK  137  A    between atoms: _335  and  _338
REMARK  138  A    between atoms: _338  and  _339
REMARK  139  A    between atoms: _342  and  _344
REMARK  140  A    between atoms: _344  and  _345
REMARK  141  A    between atoms: _347  and  _349
REMARK  142  A    between atoms: _349  and  _350
REMARK  143  A    between atoms: _353  and  _355
REMARK  144  A    between atoms: _355  and  _356
REMARK  145  A    between atoms: _355  and  _358
REMARK  146  A    between atoms: _358  and  _359
REMARK  147  A    between atoms: _362  and  _364
REMARK  148  A    between atoms: _364  and  _365
REMARK  149  A    between atoms: _364  and  _367
REMARK  150  A    between atoms: _367  and  _368
REMARK  151  A    between atoms: _371  and  _373
REMARK  152  A    between atoms: _373  and  _374
REMARK  153  A    between atoms: _373  and  _376
REMARK  154  A    between atoms: _376  and  _377
REMARK  155  A    between atoms: _380  and  _382
REMARK  156  A    between atoms: _382  and  _383
REMARK  157  A    between atoms: _382  and  _385
REMARK  158  A    between atoms: _388  and  _390
REMARK  159  A    between atoms: _390  and  _391
REMARK  160  A    between atoms: _390  and  _393
REMARK  161  A    between atoms: _393  and  _394
REMARK  162  A    between atoms: _394  and  _395
REMARK  163  A    between atoms: _397  and  _399
REMARK  164  A    between atoms: _399  and  _400
REMARK  165  A    between atoms: _399  and  _402
REMARK  166  A    between atoms: _402  and  _403
REMARK  167  A    between atoms: _406  and  _408
REMARK  168  A    between atoms: _408  and  _409
REMARK  169  A    between atoms: _411  and  _413
REMARK  170  A    between atoms: _413  and  _414
REMARK  171  A    between atoms: _416  and  _418
REMARK  172  A    between atoms: _418  and  _419
REMARK  173  A    between atoms: _418  and  _421
REMARK  174  A    between atoms: _421  and  _422
REMARK  175  A    between atoms: _425  and  _427
REMARK  176  A    between atoms: _427  and  _428
REMARK  177  A    between atoms: _430  and  _432
REMARK  178  A    between atoms: _432  and  _433
REMARK  179  A    between atoms: _435  and  _437
REMARK  180  A    between atoms: _437  and  _438
REMARK  181  A    between atoms: _437  and  _440
REMARK  182  A    between atoms: _440  and  _441
REMARK  183  A    between atoms: _447  and  _449
REMARK  184  A    between atoms: _449  and  _450
REMARK  185  A    between atoms: _449  and  _452
REMARK  186  A    between atoms: _452  and  _453
REMARK  187  A    between atoms: _456  and  _458
REMARK  188  A    between atoms: _458  and  _459
REMARK  189  A    between atoms: _458  and  _461
REMARK  190  A    between atoms: _464  and  _466
REMARK  191  A    between atoms: _466  and  _467
REMARK  192  A    between atoms: _466  and  _469
REMARK  193  A    between atoms: _469  and  _470
REMARK  194  A    between atoms: _473  and  _475
REMARK  195  A    between atoms: _475  and  _476
REMARK  196  A    between atoms: _475  and  _478
REMARK  197  A    between atoms: _478  and  _479
REMARK  198  A    between atoms: _483  and  _484
REMARK  199  A    between atoms: _489  and  _491
REMARK  200  A    between atoms: _491  and  _492
REMARK  201  A    between atoms: _495  and  _497
REMARK  202  A    between atoms: _497  and  _498
REMARK  203  A    between atoms: _497  and  _500
REMARK  204  A    between atoms: _500  and  _501
REMARK  205  A    between atoms: _506  and  _508
REMARK  206  A    between atoms: _508  and  _509
REMARK  207  A    between atoms: _508  and  _511
REMARK  208  A    between atoms: _511  and  _512
REMARK  209  A    between atoms: _515  and  _517
REMARK  210  A    between atoms: _517  and  _518
REMARK  211  A    between atoms: _517  and  _520
REMARK  212  A    between atoms: _520  and  _521
REMARK  213  A    between atoms: _524  and  _526
REMARK  214  A    between atoms: _526  and  _527
REMARK  215  A    between atoms: _529  and  _531
REMARK  216  A    between atoms: _531  and  _532
REMARK  217  A    between atoms: _531  and  _534
REMARK  218  A    between atoms: _534  and  _535
REMARK  219  A    between atoms: _535  and  _536
REMARK  220  A    between atoms: _536  and  _537
REMARK  221  A    between atoms: _546  and  _548
REMARK  222  A    between atoms: _548  and  _549
REMARK  223  A    between atoms: _548  and  _551
REMARK  224  A    between atoms: _551  and  _552
REMARK                            x       y       z     vdW  Elec       q    Type
REMARK                         _______ _______ _______ _____ _____    ______ ____
ROOT
ATOM      1  O   HOH     1      20.727  32.599  23.513  0.00  0.00    +0.000 OA
ENDROOT
TORSDOF 0
REMARK  Name = ../refined-set-2016/2nmz/2nmz_pocket.pdb
REMARK  224 active torsions:
REMARK  status: ('A' for Active; 'I' for Inactive)
REMARK    1  A    between atoms: _1  and  _3
REMARK    2  A    between atoms: _3  and  _4
REMARK    3  A    between atoms: _3  and  _6
REMARK    4  A    between atoms: _6  and  _7
REMARK    5  A    between atoms: _7  and  _8
REMARK    6  A    between atoms: _8  and  _9
REMARK    7  A    between atoms: _18  and  _20
REMARK    8  A    between atoms: _20  and  _21
REMARK    9  A    between atoms: _20  and  _23
REMARK   10  A    between atoms: _23  and  _24
REMARK   11  A    between atoms: _27  and  _29
REMARK   12  A    between atoms: _29  and  _30
REMARK   13  A    between atoms: _29  and  _32
REMARK   14  A    between atoms: _32  and  _33
REMARK   15  A    between atoms: _36  and  _38
REMARK   16  A    between atoms: _38  and  _39
REMARK   17  A    between atoms: _38  and  _41
REMARK   18  A    between atoms: _41  and  _42
REMARK   19  A    between atoms: _45  and  _47
REMARK   20  A    between atoms: _47  and  _48
REMARK   21  A    between atoms: _47  and  _50
REMARK   22  A    between atoms: _50  and  _51
REMARK   23  A    between atoms: _54  and  _56
REMARK   24  A    between atoms: _56  and  _57
REMARK   25  A    between atoms: _59  and  _61
REMARK   26  A    between atoms: _61  and  _62
REMARK   27  A    between atoms: _65  and  _67
REMARK   28  A    between atoms: _67  and  _68
REMARK   29  A    between atoms: _67  and  _70
REMARK   30  A    between atoms: _70  and  _71
REMARK   31  A    between atoms: _74  and  _76
REMARK   32  A    between atoms: _76  and  _77
REMARK   33  A    between atoms: _76  and  _79
REMARK   34  A    between atoms: _79  and  _80
REMARK   35  A    between atoms: _83  and  _85
REMARK   36  A    between atoms: _85  and  _86
REMARK   37  A    between atoms: _85  and  _88
REMARK   38  A    between atoms: _88  and  _89
REMARK   39  A    between atoms: _92  and  _94
REMARK   40  A    between atoms: _94  and  _95
REMARK   41  A    between atoms: _94  and  _97
REMARK   42  A    between atoms: _100  and  _102
REMARK   43  A    between atoms: _102  and  _103
REMARK   44  A    between atoms: _102  and  _105
REMARK   45  A    between atoms: _105  and  _106
REMARK   46  A    between atoms: _106  and  _107
REMARK   47  A    between atoms: _107  and  _108
REMARK   48  A    between atoms: _108  and  _109
REMARK   49  A    between atoms: _113  and  _115
REMARK   50  A    between atoms: _115  and  _116
REMARK   51  A    between atoms: _115  and  _118
REMARK   52  A    between atoms: _118  and  _119
REMARK   53  A    between atoms: _119  and  _120
REMARK   54  A    between atoms: _122  and  _124
REMARK   55  A    between atoms: _124  and  _125
REMARK   56  A    between atoms: _124  and  _127
REMARK   57  A    between atoms: _127  and  _128
REMARK   58  A    between atoms: _131  and  _133
REMARK   59  A    between atoms: _133  and  _134
REMARK   60  A    between atoms: _136  and  _138
REMARK   61  A    between atoms: _138  and  _139
REMARK   62  A    between atoms: _141  and  _143
REMARK   63  A    between atoms: _143  and  _144
REMARK   64  A    between atoms: _143  and  _146
REMARK   65  A    between atoms: _146  and  _147
REMARK   66  A    between atoms: _150  and  _152
REMARK   67  A    between atoms: _152  and  _153
REMARK   68  A    between atoms: _155  and  _157
REMARK   69  A    between atoms: _157  and  _158
REMARK   70  A    between atoms: _160  and  _162
REMARK   71  A    between atoms: _162  and  _163
REMARK   72  A    between atoms: _162  and  _165
REMARK   73  A    between atoms: _165  and  _166
REMARK   74  A    between atoms: _172  and  _174
REMARK   75  A    between atoms: _174  and  _175
REMARK   76  A    between atoms: _174  and  _177
REMARK   77  A    between atoms: _177  and  _178
REMARK   78  A    between atoms: _181  and  _183
REMARK   79  A    between atoms: _183  and  _184
REMARK   80  A    between atoms: _183  and  _186
REMARK   81  A    between atoms: _189  and  _191
REMARK   82  A    between atoms: _191  and  _192
REMARK   83  A    between atoms: _191  and  _194
REMARK   84  A    between atoms: _194  and  _195
REMARK   85  A    between atoms: _199  and  _200
REMARK   86  A    between atoms: _205  and  _207
REMARK   87  A    between atoms: _207  and  _208
REMARK   88  A    between atoms: _207  and  _210
REMARK   89  A    between atoms: _210  and  _211
REMARK   90  A    between atoms: _215  and  _216
REMARK   91  A    between atoms: _221  and  _223
REMARK   92  A    between atoms: _223  and  _224
REMARK   93  A    between atoms: _227  and  _229
REMARK   94  A    between atoms: _229  and  _230
REMARK   95  A    between atoms: _229  and  _232
REMARK   96  A    between atoms: _232  and  _233
REMARK   97  A    between atoms: _238  and  _240
REMARK   98  A    between atoms: _240  and  _241
REMARK   99  A    between atoms: _240  and  _243
REMARK  100  A    between atoms: _243  and  _244
REMARK  101  A    between atoms: _247  and  _249
REMARK  102  A    between atoms: _249  and  _250
REMARK  103  A    between atoms: _249  and  _252
REMARK  104  A    between atoms: _252  and  _253
REMARK  105  A    between atoms: _256  and  _258
REMARK  106  A    between atoms: _258  and  _259
REMARK  107  A    between atoms: _261  and  _263
REMARK  108  A    between atoms: _263  and  _264
REMARK  109  A    between atoms: _263  and  _266
REMARK  110  A    between atoms: _266  and  _267
REMARK  111  A    between atoms: _267  and  _268
REMARK  112  A    between atoms: _268  and  _269
REMARK  113  A    between atoms: _278  and  _280
REMARK  114  A    between atoms: _280  and  _281
REMARK  115  A    between atoms: _280  and  _283
REMARK  116  A    between atoms: _283  and  _284
REMARK  117  A    between atoms: _289  and  _291
REMARK  118  A    between atoms: _291  and  _292
REMARK  119  A    between atoms: _291  and  _294
REMARK  120  A    between atoms: _294  and  _295
REMARK  121  A    between atoms: _295  and  _296
REMARK  122  A    between atoms: _296  and  _297
REMARK  123  A    between atoms: _306  and  _308
REMARK  124  A    between atoms: _308  and  _309
REMARK  125  A    between atoms: _308  and  _311
REMARK  126  A    between atoms: _311  and  _312
REMARK  127  A    between atoms: _315  and  _317
REMARK  128  A    between atoms: _317  and  _318
REMARK  129  A    between atoms: _317  and  _320
REMARK  130  A    between atoms: _320  and  _321
REMARK  131  A    between atoms: _324  and  _326
REMARK  132  A    between atoms: _326  and  _327
REMARK  133  A    between atoms: _326  and  _329
REMARK  134  A    between atoms: _329  and  _330
REMARK  135  A    between atoms: _333  and  _335
REMARK  136  A    between atoms: _335  and  _336
REMARK  137  A    between atoms: _335  and  _338
REMARK  138  A    between atoms: _338  and  _339
REMARK  139  A    between atoms: _342  and  _344
REMARK  140  A    between atoms: _344  and  _345
REMARK  141  A    between atoms: _347  and  _349
REMARK  142  A    between atoms: _349  and  _350
REMARK  143  A    between atoms: _353  and  _355
REMARK  144  A    between atoms: _355  and  _356
REMARK  145  A    between atoms: _355  and  _358
REMARK  146  A    between atoms: _358  and  _359
REMARK  147  A    between atoms: _362  and  _364
REMARK  148  A    between atoms: _364  and  _365
REMARK  149  A    between atoms: _364  and  _367
REMARK  150  A    between atoms: _367  and  _368
REMARK  151  A    between atoms: _371  and  _373
REMARK  152  A    between atoms: _373  and  _374
REMARK  153  A    between atoms: _373  and  _376
REMARK  154  A    between atoms: _376  and  _377
REMARK  155  A    between atoms: _380  and  _382
REMARK  156  A    between atoms: _382  and  _383
REMARK  157  A    between atoms: _382  and  _385
REMARK  158  A    between atoms: _388  and  _390
REMARK  159  A    between atoms: _390  and  _391
REMARK  160  A    between atoms: _390  and  _393
REMARK  161  A    between atoms: _393  and  _394
REMARK  162  A    between atoms: _394  and  _395
REMARK  163  A    between atoms: _397  and  _399
REMARK  164  A    between atoms: _399  and  _400
REMARK  165  A    between atoms: _399  and  _402
REMARK  166  A    between atoms: _402  and  _403
REMARK  167  A    between atoms: _406  and  _408
REMARK  168  A    between atoms: _408  and  _409
REMARK  169  A    between atoms: _411  and  _413
REMARK  170  A    between atoms: _413  and  _414
REMARK  171  A    between atoms: _416  and  _418
REMARK  172  A    between atoms: _418  and  _419
REMARK  173  A    between atoms: _418  and  _421
REMARK  174  A    between atoms: _421  and  _422
REMARK  175  A    between atoms: _425  and  _427
REMARK  176  A    between atoms: _427  and  _428
REMARK  177  A    between atoms: _430  and  _432
REMARK  178  A    between atoms: _432  and  _433
REMARK  179  A    between atoms: _435  and  _437
REMARK  180  A    between atoms: _437  and  _438
REMARK  181  A    between atoms: _437  and  _440
REMARK  182  A    between atoms: _440  and  _441
REMARK  183  A    between atoms: _447  and  _449
REMARK  184  A    between atoms: _449  and  _450
REMARK  185  A    between atoms: _449  and  _452
REMARK  186  A    between atoms: _452  and  _453
REMARK  187  A    between atoms: _456  and  _458
REMARK  188  A    between atoms: _458  and  _459
REMARK  189  A    between atoms: _458  and  _461
REMARK  190  A    between atoms: _464  and  _466
REMARK  191  A    between atoms: _466  and  _467
REMARK  192  A    between atoms: _466  and  _469
REMARK  193  A    between atoms: _469  and  _470
REMARK  194  A    between atoms: _473  and  _475
REMARK  195  A    between atoms: _475  and  _476
REMARK  196  A    between atoms: _475  and  _478
REMARK  197  A    between atoms: _478  and  _479
REMARK  198  A    between atoms: _483  and  _484
REMARK  199  A    between atoms: _489  and  _491
REMARK  200  A    between atoms: _491  and  _492
REMARK  201  A    between atoms: _495  and  _497
REMARK  202  A    between atoms: _497  and  _498
REMARK  203  A    between atoms: _497  and  _500
REMARK  204  A    between atoms: _500  and  _501
REMARK  205  A    between atoms: _506  and  _508
REMARK  206  A    between atoms: _508  and  _509
REMARK  207  A    between atoms: _508  and  _511
REMARK  208  A    between atoms: _511  and  _512
REMARK  209  A    between atoms: _515  and  _517
REMARK  210  A    between atoms: _517  and  _518
REMARK  211  A    between atoms: _517  and  _520
REMARK  212  A    between atoms: _520  and  _521
REMARK  213  A    between atoms: _524  and  _526
REMARK  214  A    between atoms: _526  and  _527
REMARK  215  A    between atoms: _529  and  _531
REMARK  216  A    between atoms: _531  and  _532
REMARK  217  A    between atoms: _531  and  _534
REMARK  218  A    between atoms: _534  and  _535
REMARK  219  A    between atoms: _535  and  _536
REMARK  220  A    between atoms: _536  and  _537
REMARK  221  A    between atoms: _546  and  _548
REMARK  222  A    between atoms: _548  and  _549
REMARK  223  A    between atoms: _548  and  _551
REMARK  224  A    between atoms: _551  and  _552
REMARK                            x       y       z     vdW  Elec       q    Type
REMARK                         _______ _______ _______ _____ _____    ______ ____
ROOT
ATOM      1  O   HOH     1      21.119  34.391  21.402  0.00  0.00    +0.000 OA
ENDROOT
TORSDOF 0
REMARK  Name = ../refined-set-2016/2nmz/2nmz_pocket.pdb
REMARK  224 active torsions:
REMARK  status: ('A' for Active; 'I' for Inactive)
REMARK    1  A    between atoms: _1  and  _3
REMARK    2  A    between atoms: _3  and  _4
REMARK    3  A    between atoms: _3  and  _6
REMARK    4  A    between atoms: _6  and  _7
REMARK    5  A    between atoms: _7  and  _8
REMARK    6  A    between atoms: _8  and  _9
REMARK    7  A    between atoms: _18  and  _20
REMARK    8  A    between atoms: _20  and  _21
REMARK    9  A    between atoms: _20  and  _23
REMARK   10  A    between atoms: _23  and  _24
REMARK   11  A    between atoms: _27  and  _29
REMARK   12  A    between atoms: _29  and  _30
REMARK   13  A    between atoms: _29  and  _32
REMARK   14  A    between atoms: _32  and  _33
REMARK   15  A    between atoms: _36  and  _38
REMARK   16  A    between atoms: _38  and  _39
REMARK   17  A    between atoms: _38  and  _41
REMARK   18  A    between atoms: _41  and  _42
REMARK   19  A    between atoms: _45  and  _47
REMARK   20  A    between atoms: _47  and  _48
REMARK   21  A    between atoms: _47  and  _50
REMARK   22  A    between atoms: _50  and  _51
REMARK   23  A    between atoms: _54  and  _56
REMARK   24  A    between atoms: _56  and  _57
REMARK   25  A    between atoms: _59  and  _61
REMARK   26  A    between atoms: _61  and  _62
REMARK   27  A    between atoms: _65  and  _67
REMARK   28  A    between atoms: _67  and  _68
REMARK   29  A    between atoms: _67  and  _70
REMARK   30  A    between atoms: _70  and  _71
REMARK   31  A    between atoms: _74  and  _76
REMARK   32  A    between atoms: _76  and  _77
REMARK   33  A    between atoms: _76  and  _79
REMARK   34  A    between atoms: _79  and  _80
REMARK   35  A    between atoms: _83  and  _85
REMARK   36  A    between atoms: _85  and  _86
REMARK   37  A    between atoms: _85  and  _88
REMARK   38  A    between atoms: _88  and  _89
REMARK   39  A    between atoms: _92  and  _94
REMARK   40  A    between atoms: _94  and  _95
REMARK   41  A    between atoms: _94  and  _97
REMARK   42  A    between atoms: _100  and  _102
REMARK   43  A    between atoms: _102  and  _103
REMARK   44  A    between atoms: _102  and  _105
REMARK   45  A    between atoms: _105  and  _106
REMARK   46  A    between atoms: _106  and  _107
REMARK   47  A    between atoms: _107  and  _108
REMARK   48  A    between atoms: _108  and  _109
REMARK   49  A    between atoms: _113  and  _115
REMARK   50  A    between atoms: _115  and  _116
REMARK   51  A    between atoms: _115  and  _118
REMARK   52  A    between atoms: _118  and  _119
REMARK   53  A    between atoms: _119  and  _120
REMARK   54  A    between atoms: _122  and  _124
REMARK   55  A    between atoms: _124  and  _125
REMARK   56  A    between atoms: _124  and  _127
REMARK   57  A    between atoms: _127  and  _128
REMARK   58  A    between atoms: _131  and  _133
REMARK   59  A    between atoms: _133  and  _134
REMARK   60  A    between atoms: _136  and  _138
REMARK   61  A    between atoms: _138  and  _139
REMARK   62  A    between atoms: _141  and  _143
REMARK   63  A    between atoms: _143  and  _144
REMARK   64  A    between atoms: _143  and  _146
REMARK   65  A    between atoms: _146  and  _147
REMARK   66  A    between atoms: _150  and  _152
REMARK   67  A    between atoms: _152  and  _153
REMARK   68  A    between atoms: _155  and  _157
REMARK   69  A    between atoms: _157  and  _158
REMARK   70  A    between atoms: _160  and  _162
REMARK   71  A    between atoms: _162  and  _163
REMARK   72  A    between atoms: _162  and  _165
REMARK   73  A    between atoms: _165  and  _166
REMARK   74  A    between atoms: _172  and  _174
REMARK   75  A    between atoms: _174  and  _175
REMARK   76  A    between atoms: _174  and  _177
REMARK   77  A    between atoms: _177  and  _178
REMARK   78  A    between atoms: _181  and  _183
REMARK   79  A    between atoms: _183  and  _184
REMARK   80  A    between atoms: _183  and  _186
REMARK   81  A    between atoms: _189  and  _191
REMARK   82  A    between atoms: _191  and  _192
REMARK   83  A    between atoms: _191  and  _194
REMARK   84  A    between atoms: _194  and  _195
REMARK   85  A    between atoms: _199  and  _200
REMARK   86  A    between atoms: _205  and  _207
REMARK   87  A    between atoms: _207  and  _208
REMARK   88  A    between atoms: _207  and  _210
REMARK   89  A    between atoms: _210  and  _211
REMARK   90  A    between atoms: _215  and  _216
REMARK   91  A    between atoms: _221  and  _223
REMARK   92  A    between atoms: _223  and  _224
REMARK   93  A    between atoms: _227  and  _229
REMARK   94  A    between atoms: _229  and  _230
REMARK   95  A    between atoms: _229  and  _232
REMARK   96  A    between atoms: _232  and  _233
REMARK   97  A    between atoms: _238  and  _240
REMARK   98  A    between atoms: _240  and  _241
REMARK   99  A    between atoms: _240  and  _243
REMARK  100  A    between atoms: _243  and  _244
REMARK  101  A    between atoms: _247  and  _249
REMARK  102  A    between atoms: _249  and  _250
REMARK  103  A    between atoms: _249  and  _252
REMARK  104  A    between atoms: _252  and  _253
REMARK  105  A    between atoms: _256  and  _258
REMARK  106  A    between atoms: _258  and  _259
REMARK  107  A    between atoms: _261  and  _263
REMARK  108  A    between atoms: _263  and  _264
REMARK  109  A    between atoms: _263  and  _266
REMARK  110  A    between atoms: _266  and  _267
REMARK  111  A    between atoms: _267  and  _268
REMARK  112  A    between atoms: _268  and  _269
REMARK  113  A    between atoms: _278  and  _280
REMARK  114  A    between atoms: _280  and  _281
REMARK  115  A    between atoms: _280  and  _283
REMARK  116  A    between atoms: _283  and  _284
REMARK  117  A    between atoms: _289  and  _291
REMARK  118  A    between atoms: _291  and  _292
REMARK  119  A    between atoms: _291  and  _294
REMARK  120  A    between atoms: _294  and  _295
REMARK  121  A    between atoms: _295  and  _296
REMARK  122  A    between atoms: _296  and  _297
REMARK  123  A    between atoms: _306  and  _308
REMARK  124  A    between atoms: _308  and  _309
REMARK  125  A    between atoms: _308  and  _311
REMARK  126  A    between atoms: _311  and  _312
REMARK  127  A    between atoms: _315  and  _317
REMARK  128  A    between atoms: _317  and  _318
REMARK  129  A    between atoms: _317  and  _320
REMARK  130  A    between atoms: _320  and  _321
REMARK  131  A    between atoms: _324  and  _326
REMARK  132  A    between atoms: _326  and  _327
REMARK  133  A    between atoms: _326  and  _329
REMARK  134  A    between atoms: _329  and  _330
REMARK  135  A    between atoms: _333  and  _335
REMARK  136  A    between atoms: _335  and  _336
REMARK  137  A    between atoms: _335  and  _338
REMARK  138  A    between atoms: _338  and  _339
REMARK  139  A    between atoms: _342  and  _344
REMARK  140  A    between atoms: _344  and  _345
REMARK  141  A    between atoms: _347  and  _349
REMARK  142  A    between atoms: _349  and  _350
REMARK  143  A    between atoms: _353  and  _355
REMARK  144  A    between atoms: _355  and  _356
REMARK  145  A    between atoms: _355  and  _358
REMARK  146  A    between atoms: _358  and  _359
REMARK  147  A    between atoms: _362  and  _364
REMARK  148  A    between atoms: _364  and  _365
REMARK  149  A    between atoms: _364  and  _367
REMARK  150  A    between atoms: _367  and  _368
REMARK  151  A    between atoms: _371  and  _373
REMARK  152  A    between atoms: _373  and  _374
REMARK  153  A    between atoms: _373  and  _376
REMARK  154  A    between atoms: _376  and  _377
REMARK  155  A    between atoms: _380  and  _382
REMARK  156  A    between atoms: _382  and  _383
REMARK  157  A    between atoms: _382  and  _385
REMARK  158  A    between atoms: _388  and  _390
REMARK  159  A    between atoms: _390  and  _391
REMARK  160  A    between atoms: _390  and  _393
REMARK  161  A    between atoms: _393  and  _394
REMARK  162  A    between atoms: _394  and  _395
REMARK  163  A    between atoms: _397  and  _399
REMARK  164  A    between atoms: _399  and  _400
REMARK  165  A    between atoms: _399  and  _402
REMARK  166  A    between atoms: _402  and  _403
REMARK  167  A    between atoms: _406  and  _408
REMARK  168  A    between atoms: _408  and  _409
REMARK  169  A    between atoms: _411  and  _413
REMARK  170  A    between atoms: _413  and  _414
REMARK  171  A    between atoms: _416  and  _418
REMARK  172  A    between atoms: _418  and  _419
REMARK  173  A    between atoms: _418  and  _421
REMARK  174  A    between atoms: _421  and  _422
REMARK  175  A    between atoms: _425  and  _427
REMARK  176  A    between atoms: _427  and  _428
REMARK  177  A    between atoms: _430  and  _432
REMARK  178  A    between atoms: _432  and  _433
REMARK  179  A    between atoms: _435  and  _437
REMARK  180  A    between atoms: _437  and  _438
REMARK  181  A    between atoms: _437  and  _440
REMARK  182  A    between atoms: _440  and  _441
REMARK  183  A    between atoms: _447  and  _449
REMARK  184  A    between atoms: _449  and  _450
REMARK  185  A    between atoms: _449  and  _452
REMARK  186  A    between atoms: _452  and  _453
REMARK  187  A    between atoms: _456  and  _458
REMARK  188  A    between atoms: _458  and  _459
REMARK  189  A    between atoms: _458  and  _461
REMARK  190  A    between atoms: _464  and  _466
REMARK  191  A    between atoms: _466  and  _467
REMARK  192  A    between atoms: _466  and  _469
REMARK  193  A    between atoms: _469  and  _470
REMARK  194  A    between atoms: _473  and  _475
REMARK  195  A    between atoms: _475  and  _476
REMARK  196  A    between atoms: _475  and  _478
REMARK  197  A    between atoms: _478  and  _479
REMARK  198  A    between atoms: _483  and  _484
REMARK  199  A    between atoms: _489  and  _491
REMARK  200  A    between atoms: _491  and  _492
REMARK  201  A    between atoms: _495  and  _497
REMARK  202  A    between atoms: _497  and  _498
REMARK  203  A    between atoms: _497  and  _500
REMARK  204  A    between atoms: _500  and  _501
REMARK  205  A    between atoms: _506  and  _508
REMARK  206  A    between atoms: _508  and  _509
REMARK  207  A    between atoms: _508  and  _511
REMARK  208  A    between atoms: _511  and  _512
REMARK  209  A    between atoms: _515  and  _517
REMARK  210  A    between atoms: _517  and  _518
REMARK  211  A    between atoms: _517  and  _520
REMARK  212  A    between atoms: _520  and  _521
REMARK  213  A    between atoms: _524  and  _526
REMARK  214  A    between atoms: _526  and  _527
REMARK  215  A    between atoms: _529  and  _531
REMARK  216  A    between atoms: _531  and  _532
REMARK  217  A    between atoms: _531  and  _534
REMARK  218  A    between atoms: _534  and  _535
REMARK  219  A    between atoms: _535  and  _536
REMARK  220  A    between atoms: _536  and  _537
REMARK  221  A    between atoms: _546  and  _548
REMARK  222  A    between atoms: _548  and  _549
REMARK  223  A    between atoms: _548  and  _551
REMARK  224  A    between atoms: _551  and  _552
REMARK                            x       y       z     vdW  Elec       q    Type
REMARK                         _______ _______ _______ _____ _____    ______ ____
ROOT
ATOM      1  O   HOH     1      15.876  43.196  16.336  0.00  0.00    +0.000 OA
ENDROOT
TORSDOF 0
REMARK  Name = ../refined-set-2016/2nmz/2nmz_pocket.pdb
REMARK  224 active torsions:
REMARK  status: ('A' for Active; 'I' for Inactive)
REMARK    1  A    between atoms: _1  and  _3
REMARK    2  A    between atoms: _3  and  _4
REMARK    3  A    between atoms: _3  and  _6
REMARK    4  A    between atoms: _6  and  _7
REMARK    5  A    between atoms: _7  and  _8
REMARK    6  A    between atoms: _8  and  _9
REMARK    7  A    between atoms: _18  and  _20
REMARK    8  A    between atoms: _20  and  _21
REMARK    9  A    between atoms: _20  and  _23
REMARK   10  A    between atoms: _23  and  _24
REMARK   11  A    between atoms: _27  and  _29
REMARK   12  A    between atoms: _29  and  _30
REMARK   13  A    between atoms: _29  and  _32
REMARK   14  A    between atoms: _32  and  _33
REMARK   15  A    between atoms: _36  and  _38
REMARK   16  A    between atoms: _38  and  _39
REMARK   17  A    between atoms: _38  and  _41
REMARK   18  A    between atoms: _41  and  _42
REMARK   19  A    between atoms: _45  and  _47
REMARK   20  A    between atoms: _47  and  _48
REMARK   21  A    between atoms: _47  and  _50
REMARK   22  A    between atoms: _50  and  _51
REMARK   23  A    between atoms: _54  and  _56
REMARK   24  A    between atoms: _56  and  _57
REMARK   25  A    between atoms: _59  and  _61
REMARK   26  A    between atoms: _61  and  _62
REMARK   27  A    between atoms: _65  and  _67
REMARK   28  A    between atoms: _67  and  _68
REMARK   29  A    between atoms: _67  and  _70
REMARK   30  A    between atoms: _70  and  _71
REMARK   31  A    between atoms: _74  and  _76
REMARK   32  A    between atoms: _76  and  _77
REMARK   33  A    between atoms: _76  and  _79
REMARK   34  A    between atoms: _79  and  _80
REMARK   35  A    between atoms: _83  and  _85
REMARK   36  A    between atoms: _85  and  _86
REMARK   37  A    between atoms: _85  and  _88
REMARK   38  A    between atoms: _88  and  _89
REMARK   39  A    between atoms: _92  and  _94
REMARK   40  A    between atoms: _94  and  _95
REMARK   41  A    between atoms: _94  and  _97
REMARK   42  A    between atoms: _100  and  _102
REMARK   43  A    between atoms: _102  and  _103
REMARK   44  A    between atoms: _102  and  _105
REMARK   45  A    between atoms: _105  and  _106
REMARK   46  A    between atoms: _106  and  _107
REMARK   47  A    between atoms: _107  and  _108
REMARK   48  A    between atoms: _108  and  _109
REMARK   49  A    between atoms: _113  and  _115
REMARK   50  A    between atoms: _115  and  _116
REMARK   51  A    between atoms: _115  and  _118
REMARK   52  A    between atoms: _118  and  _119
REMARK   53  A    between atoms: _119  and  _120
REMARK   54  A    between atoms: _122  and  _124
REMARK   55  A    between atoms: _124  and  _125
REMARK   56  A    between atoms: _124  and  _127
REMARK   57  A    between atoms: _127  and  _128
REMARK   58  A    between atoms: _131  and  _133
REMARK   59  A    between atoms: _133  and  _134
REMARK   60  A    between atoms: _136  and  _138
REMARK   61  A    between atoms: _138  and  _139
REMARK   62  A    between atoms: _141  and  _143
REMARK   63  A    between atoms: _143  and  _144
REMARK   64  A    between atoms: _143  and  _146
REMARK   65  A    between atoms: _146  and  _147
REMARK   66  A    between atoms: _150  and  _152
REMARK   67  A    between atoms: _152  and  _153
REMARK   68  A    between atoms: _155  and  _157
REMARK   69  A    between atoms: _157  and  _158
REMARK   70  A    between atoms: _160  and  _162
REMARK   71  A    between atoms: _162  and  _163
REMARK   72  A    between atoms: _162  and  _165
REMARK   73  A    between atoms: _165  and  _166
REMARK   74  A    between atoms: _172  and  _174
REMARK   75  A    between atoms: _174  and  _175
REMARK   76  A    between atoms: _174  and  _177
REMARK   77  A    between atoms: _177  and  _178
REMARK   78  A    between atoms: _181  and  _183
REMARK   79  A    between atoms: _183  and  _184
REMARK   80  A    between atoms: _183  and  _186
REMARK   81  A    between atoms: _189  and  _191
REMARK   82  A    between atoms: _191  and  _192
REMARK   83  A    between atoms: _191  and  _194
REMARK   84  A    between atoms: _194  and  _195
REMARK   85  A    between atoms: _199  and  _200
REMARK   86  A    between atoms: _205  and  _207
REMARK   87  A    between atoms: _207  and  _208
REMARK   88  A    between atoms: _207  and  _210
REMARK   89  A    between atoms: _210  and  _211
REMARK   90  A    between atoms: _215  and  _216
REMARK   91  A    between atoms: _221  and  _223
REMARK   92  A    between atoms: _223  and  _224
REMARK   93  A    between atoms: _227  and  _229
REMARK   94  A    between atoms: _229  and  _230
REMARK   95  A    between atoms: _229  and  _232
REMARK   96  A    between atoms: _232  and  _233
REMARK   97  A    between atoms: _238  and  _240
REMARK   98  A    between atoms: _240  and  _241
REMARK   99  A    between atoms: _240  and  _243
REMARK  100  A    between atoms: _243  and  _244
REMARK  101  A    between atoms: _247  and  _249
REMARK  102  A    between atoms: _249  and  _250
REMARK  103  A    between atoms: _249  and  _252
REMARK  104  A    between atoms: _252  and  _253
REMARK  105  A    between atoms: _256  and  _258
REMARK  106  A    between atoms: _258  and  _259
REMARK  107  A    between atoms: _261  and  _263
REMARK  108  A    between atoms: _263  and  _264
REMARK  109  A    between atoms: _263  and  _266
REMARK  110  A    between atoms: _266  and  _267
REMARK  111  A    between atoms: _267  and  _268
REMARK  112  A    between atoms: _268  and  _269
REMARK  113  A    between atoms: _278  and  _280
REMARK  114  A    between atoms: _280  and  _281
REMARK  115  A    between atoms: _280  and  _283
REMARK  116  A    between atoms: _283  and  _284
REMARK  117  A    between atoms: _289  and  _291
REMARK  118  A    between atoms: _291  and  _292
REMARK  119  A    between atoms: _291  and  _294
REMARK  120  A    between atoms: _294  and  _295
REMARK  121  A    between atoms: _295  and  _296
REMARK  122  A    between atoms: _296  and  _297
REMARK  123  A    between atoms: _306  and  _308
REMARK  124  A    between atoms: _308  and  _309
REMARK  125  A    between atoms: _308  and  _311
REMARK  126  A    between atoms: _311  and  _312
REMARK  127  A    between atoms: _315  and  _317
REMARK  128  A    between atoms: _317  and  _318
REMARK  129  A    between atoms: _317  and  _320
REMARK  130  A    between atoms: _320  and  _321
REMARK  131  A    between atoms: _324  and  _326
REMARK  132  A    between atoms: _326  and  _327
REMARK  133  A    between atoms: _326  and  _329
REMARK  134  A    between atoms: _329  and  _330
REMARK  135  A    between atoms: _333  and  _335
REMARK  136  A    between atoms: _335  and  _336
REMARK  137  A    between atoms: _335  and  _338
REMARK  138  A    between atoms: _338  and  _339
REMARK  139  A    between atoms: _342  and  _344
REMARK  140  A    between atoms: _344  and  _345
REMARK  141  A    between atoms: _347  and  _349
REMARK  142  A    between atoms: _349  and  _350
REMARK  143  A    between atoms: _353  and  _355
REMARK  144  A    between atoms: _355  and  _356
REMARK  145  A    between atoms: _355  and  _358
REMARK  146  A    between atoms: _358  and  _359
REMARK  147  A    between atoms: _362  and  _364
REMARK  148  A    between atoms: _364  and  _365
REMARK  149  A    between atoms: _364  and  _367
REMARK  150  A    between atoms: _367  and  _368
REMARK  151  A    between atoms: _371  and  _373
REMARK  152  A    between atoms: _373  and  _374
REMARK  153  A    between atoms: _373  and  _376
REMARK  154  A    between atoms: _376  and  _377
REMARK  155  A    between atoms: _380  and  _382
REMARK  156  A    between atoms: _382  and  _383
REMARK  157  A    between atoms: _382  and  _385
REMARK  158  A    between atoms: _388  and  _390
REMARK  159  A    between atoms: _390  and  _391
REMARK  160  A    between atoms: _390  and  _393
REMARK  161  A    between atoms: _393  and  _394
REMARK  162  A    between atoms: _394  and  _395
REMARK  163  A    between atoms: _397  and  _399
REMARK  164  A    between atoms: _399  and  _400
REMARK  165  A    between atoms: _399  and  _402
REMARK  166  A    between atoms: _402  and  _403
REMARK  167  A    between atoms: _406  and  _408
REMARK  168  A    between atoms: _408  and  _409
REMARK  169  A    between atoms: _411  and  _413
REMARK  170  A    between atoms: _413  and  _414
REMARK  171  A    between atoms: _416  and  _418
REMARK  172  A    between atoms: _418  and  _419
REMARK  173  A    between atoms: _418  and  _421
REMARK  174  A    between atoms: _421  and  _422
REMARK  175  A    between atoms: _425  and  _427
REMARK  176  A    between atoms: _427  and  _428
REMARK  177  A    between atoms: _430  and  _432
REMARK  178  A    between atoms: _432  and  _433
REMARK  179  A    between atoms: _435  and  _437
REMARK  180  A    between atoms: _437  and  _438
REMARK  181  A    between atoms: _437  and  _440
REMARK  182  A    between atoms: _440  and  _441
REMARK  183  A    between atoms: _447  and  _449
REMARK  184  A    between atoms: _449  and  _450
REMARK  185  A    between atoms: _449  and  _452
REMARK  186  A    between atoms: _452  and  _453
REMARK  187  A    between atoms: _456  and  _458
REMARK  188  A    between atoms: _458  and  _459
REMARK  189  A    between atoms: _458  and  _461
REMARK  190  A    between atoms: _464  and  _466
REMARK  191  A    between atoms: _466  and  _467
REMARK  192  A    between atoms: _466  and  _469
REMARK  193  A    between atoms: _469  and  _470
REMARK  194  A    between atoms: _473  and  _475
REMARK  195  A    between atoms: _475  and  _476
REMARK  196  A    between atoms: _475  and  _478
REMARK  197  A    between atoms: _478  and  _479
REMARK  198  A    between atoms: _483  and  _484
REMARK  199  A    between atoms: _489  and  _491
REMARK  200  A    between atoms: _491  and  _492
REMARK  201  A    between atoms: _495  and  _497
REMARK  202  A    between atoms: _497  and  _498
REMARK  203  A    between atoms: _497  and  _500
REMARK  204  A    between atoms: _500  and  _501
REMARK  205  A    between atoms: _506  and  _508
REMARK  206  A    between atoms: _508  and  _509
REMARK  207  A    between atoms: _508  and  _511
REMARK  208  A    between atoms: _511  and  _512
REMARK  209  A    between atoms: _515  and  _517
REMARK  210  A    between atoms: _517  and  _518
REMARK  211  A    between atoms: _517  and  _520
REMARK  212  A    between atoms: _520  and  _521
REMARK  213  A    between atoms: _524  and  _526
REMARK  214  A    between atoms: _526  and  _527
REMARK  215  A    between atoms: _529  and  _531
REMARK  216  A    between atoms: _531  and  _532
REMARK  217  A    between atoms: _531  and  _534
REMARK  218  A    between atoms: _534  and  _535
REMARK  219  A    between atoms: _535  and  _536
REMARK  220  A    between atoms: _536  and  _537
REMARK  221  A    between atoms: _546  and  _548
REMARK  222  A    between atoms: _548  and  _549
REMARK  223  A    between atoms: _548  and  _551
REMARK  224  A    between atoms: _551  and  _552
REMARK                            x       y       z     vdW  Elec       q    Type
REMARK                         _______ _______ _______ _____ _____    ______ ____
ROOT
ATOM      1  O   HOH     1      17.093  39.971  16.449  0.00  0.00    +0.000 OA
ENDROOT
TORSDOF 0
REMARK  Name = ../refined-set-2016/2nmz/2nmz_pocket.pdb
REMARK  224 active torsions:
REMARK  status: ('A' for Active; 'I' for Inactive)
REMARK    1  A    between atoms: _1  and  _3
REMARK    2  A    between atoms: _3  and  _4
REMARK    3  A    between atoms: _3  and  _6
REMARK    4  A    between atoms: _6  and  _7
REMARK    5  A    between atoms: _7  and  _8
REMARK    6  A    between atoms: _8  and  _9
REMARK    7  A    between atoms: _18  and  _20
REMARK    8  A    between atoms: _20  and  _21
REMARK    9  A    between atoms: _20  and  _23
REMARK   10  A    between atoms: _23  and  _24
REMARK   11  A    between atoms: _27  and  _29
REMARK   12  A    between atoms: _29  and  _30
REMARK   13  A    between atoms: _29  and  _32
REMARK   14  A    between atoms: _32  and  _33
REMARK   15  A    between atoms: _36  and  _38
REMARK   16  A    between atoms: _38  and  _39
REMARK   17  A    between atoms: _38  and  _41
REMARK   18  A    between atoms: _41  and  _42
REMARK   19  A    between atoms: _45  and  _47
REMARK   20  A    between atoms: _47  and  _48
REMARK   21  A    between atoms: _47  and  _50
REMARK   22  A    between atoms: _50  and  _51
REMARK   23  A    between atoms: _54  and  _56
REMARK   24  A    between atoms: _56  and  _57
REMARK   25  A    between atoms: _59  and  _61
REMARK   26  A    between atoms: _61  and  _62
REMARK   27  A    between atoms: _65  and  _67
REMARK   28  A    between atoms: _67  and  _68
REMARK   29  A    between atoms: _67  and  _70
REMARK   30  A    between atoms: _70  and  _71
REMARK   31  A    between atoms: _74  and  _76
REMARK   32  A    between atoms: _76  and  _77
REMARK   33  A    between atoms: _76  and  _79
REMARK   34  A    between atoms: _79  and  _80
REMARK   35  A    between atoms: _83  and  _85
REMARK   36  A    between atoms: _85  and  _86
REMARK   37  A    between atoms: _85  and  _88
REMARK   38  A    between atoms: _88  and  _89
REMARK   39  A    between atoms: _92  and  _94
REMARK   40  A    between atoms: _94  and  _95
REMARK   41  A    between atoms: _94  and  _97
REMARK   42  A    between atoms: _100  and  _102
REMARK   43  A    between atoms: _102  and  _103
REMARK   44  A    between atoms: _102  and  _105
REMARK   45  A    between atoms: _105  and  _106
REMARK   46  A    between atoms: _106  and  _107
REMARK   47  A    between atoms: _107  and  _108
REMARK   48  A    between atoms: _108  and  _109
REMARK   49  A    between atoms: _113  and  _115
REMARK   50  A    between atoms: _115  and  _116
REMARK   51  A    between atoms: _115  and  _118
REMARK   52  A    between atoms: _118  and  _119
REMARK   53  A    between atoms: _119  and  _120
REMARK   54  A    between atoms: _122  and  _124
REMARK   55  A    between atoms: _124  and  _125
REMARK   56  A    between atoms: _124  and  _127
REMARK   57  A    between atoms: _127  and  _128
REMARK   58  A    between atoms: _131  and  _133
REMARK   59  A    between atoms: _133  and  _134
REMARK   60  A    between atoms: _136  and  _138
REMARK   61  A    between atoms: _138  and  _139
REMARK   62  A    between atoms: _141  and  _143
REMARK   63  A    between atoms: _143  and  _144
REMARK   64  A    between atoms: _143  and  _146
REMARK   65  A    between atoms: _146  and  _147
REMARK   66  A    between atoms: _150  and  _152
REMARK   67  A    between atoms: _152  and  _153
REMARK   68  A    between atoms: _155  and  _157
REMARK   69  A    between atoms: _157  and  _158
REMARK   70  A    between atoms: _160  and  _162
REMARK   71  A    between atoms: _162  and  _163
REMARK   72  A    between atoms: _162  and  _165
REMARK   73  A    between atoms: _165  and  _166
REMARK   74  A    between atoms: _172  and  _174
REMARK   75  A    between atoms: _174  and  _175
REMARK   76  A    between atoms: _174  and  _177
REMARK   77  A    between atoms: _177  and  _178
REMARK   78  A    between atoms: _181  and  _183
REMARK   79  A    between atoms: _183  and  _184
REMARK   80  A    between atoms: _183  and  _186
REMARK   81  A    between atoms: _189  and  _191
REMARK   82  A    between atoms: _191  and  _192
REMARK   83  A    between atoms: _191  and  _194
REMARK   84  A    between atoms: _194  and  _195
REMARK   85  A    between atoms: _199  and  _200
REMARK   86  A    between atoms: _205  and  _207
REMARK   87  A    between atoms: _207  and  _208
REMARK   88  A    between atoms: _207  and  _210
REMARK   89  A    between atoms: _210  and  _211
REMARK   90  A    between atoms: _215  and  _216
REMARK   91  A    between atoms: _221  and  _223
REMARK   92  A    between atoms: _223  and  _224
REMARK   93  A    between atoms: _227  and  _229
REMARK   94  A    between atoms: _229  and  _230
REMARK   95  A    between atoms: _229  and  _232
REMARK   96  A    between atoms: _232  and  _233
REMARK   97  A    between atoms: _238  and  _240
REMARK   98  A    between atoms: _240  and  _241
REMARK   99  A    between atoms: _240  and  _243
REMARK  100  A    between atoms: _243  and  _244
REMARK  101  A    between atoms: _247  and  _249
REMARK  102  A    between atoms: _249  and  _250
REMARK  103  A    between atoms: _249  and  _252
REMARK  104  A    between atoms: _252  and  _253
REMARK  105  A    between atoms: _256  and  _258
REMARK  106  A    between atoms: _258  and  _259
REMARK  107  A    between atoms: _261  and  _263
REMARK  108  A    between atoms: _263  and  _264
REMARK  109  A    between atoms: _263  and  _266
REMARK  110  A    between atoms: _266  and  _267
REMARK  111  A    between atoms: _267  and  _268
REMARK  112  A    between atoms: _268  and  _269
REMARK  113  A    between atoms: _278  and  _280
REMARK  114  A    between atoms: _280  and  _281
REMARK  115  A    between atoms: _280  and  _283
REMARK  116  A    between atoms: _283  and  _284
REMARK  117  A    between atoms: _289  and  _291
REMARK  118  A    between atoms: _291  and  _292
REMARK  119  A    between atoms: _291  and  _294
REMARK  120  A    between atoms: _294  and  _295
REMARK  121  A    between atoms: _295  and  _296
REMARK  122  A    between atoms: _296  and  _297
REMARK  123  A    between atoms: _306  and  _308
REMARK  124  A    between atoms: _308  and  _309
REMARK  125  A    between atoms: _308  and  _311
REMARK  126  A    between atoms: _311  and  _312
REMARK  127  A    between atoms: _315  and  _317
REMARK  128  A    between atoms: _317  and  _318
REMARK  129  A    between atoms: _317  and  _320
REMARK  130  A    between atoms: _320  and  _321
REMARK  131  A    between atoms: _324  and  _326
REMARK  132  A    between atoms: _326  and  _327
REMARK  133  A    between atoms: _326  and  _329
REMARK  134  A    between atoms: _329  and  _330
REMARK  135  A    between atoms: _333  and  _335
REMARK  136  A    between atoms: _335  and  _336
REMARK  137  A    between atoms: _335  and  _338
REMARK  138  A    between atoms: _338  and  _339
REMARK  139  A    between atoms: _342  and  _344
REMARK  140  A    between atoms: _344  and  _345
REMARK  141  A    between atoms: _347  and  _349
REMARK  142  A    between atoms: _349  and  _350
REMARK  143  A    between atoms: _353  and  _355
REMARK  144  A    between atoms: _355  and  _356
REMARK  145  A    between atoms: _355  and  _358
REMARK  146  A    between atoms: _358  and  _359
REMARK  147  A    between atoms: _362  and  _364
REMARK  148  A    between atoms: _364  and  _365
REMARK  149  A    between atoms: _364  and  _367
REMARK  150  A    between atoms: _367  and  _368
REMARK  151  A    between atoms: _371  and  _373
REMARK  152  A    between atoms: _373  and  _374
REMARK  153  A    between atoms: _373  and  _376
REMARK  154  A    between atoms: _376  and  _377
REMARK  155  A    between atoms: _380  and  _382
REMARK  156  A    between atoms: _382  and  _383
REMARK  157  A    between atoms: _382  and  _385
REMARK  158  A    between atoms: _388  and  _390
REMARK  159  A    between atoms: _390  and  _391
REMARK  160  A    between atoms: _390  and  _393
REMARK  161  A    between atoms: _393  and  _394
REMARK  162  A    between atoms: _394  and  _395
REMARK  163  A    between atoms: _397  and  _399
REMARK  164  A    between atoms: _399  and  _400
REMARK  165  A    between atoms: _399  and  _402
REMARK  166  A    between atoms: _402  and  _403
REMARK  167  A    between atoms: _406  and  _408
REMARK  168  A    between atoms: _408  and  _409
REMARK  169  A    between atoms: _411  and  _413
REMARK  170  A    between atoms: _413  and  _414
REMARK  171  A    between atoms: _416  and  _418
REMARK  172  A    between atoms: _418  and  _419
REMARK  173  A    between atoms: _418  and  _421
REMARK  174  A    between atoms: _421  and  _422
REMARK  175  A    between atoms: _425  and  _427
REMARK  176  A    between atoms: _427  and  _428
REMARK  177  A    between atoms: _430  and  _432
REMARK  178  A    between atoms: _432  and  _433
REMARK  179  A    between atoms: _435  and  _437
REMARK  180  A    between atoms: _437  and  _438
REMARK  181  A    between atoms: _437  and  _440
REMARK  182  A    between atoms: _440  and  _441
REMARK  183  A    between atoms: _447  and  _449
REMARK  184  A    between atoms: _449  and  _450
REMARK  185  A    between atoms: _449  and  _452
REMARK  186  A    between atoms: _452  and  _453
REMARK  187  A    between atoms: _456  and  _458
REMARK  188  A    between atoms: _458  and  _459
REMARK  189  A    between atoms: _458  and  _461
REMARK  190  A    between atoms: _464  and  _466
REMARK  191  A    between atoms: _466  and  _467
REMARK  192  A    between atoms: _466  and  _469
REMARK  193  A    between atoms: _469  and  _470
REMARK  194  A    between atoms: _473  and  _475
REMARK  195  A    between atoms: _475  and  _476
REMARK  196  A    between atoms: _475  and  _478
REMARK  197  A    between atoms: _478  and  _479
REMARK  198  A    between atoms: _483  and  _484
REMARK  199  A    between atoms: _489  and  _491
REMARK  200  A    between atoms: _491  and  _492
REMARK  201  A    between atoms: _495  and  _497
REMARK  202  A    between atoms: _497  and  _498
REMARK  203  A    between atoms: _497  and  _500
REMARK  204  A    between atoms: _500  and  _501
REMARK  205  A    between atoms: _506  and  _508
REMARK  206  A    between atoms: _508  and  _509
REMARK  207  A    between atoms: _508  and  _511
REMARK  208  A    between atoms: _511  and  _512
REMARK  209  A    between atoms: _515  and  _517
REMARK  210  A    between atoms: _517  and  _518
REMARK  211  A    between atoms: _517  and  _520
REMARK  212  A    between atoms: _520  and  _521
REMARK  213  A    between atoms: _524  and  _526
REMARK  214  A    between atoms: _526  and  _527
REMARK  215  A    between atoms: _529  and  _531
REMARK  216  A    between atoms: _531  and  _532
REMARK  217  A    between atoms: _531  and  _534
REMARK  218  A    between atoms: _534  and  _535
REMARK  219  A    between atoms: _535  and  _536
REMARK  220  A    between atoms: _536  and  _537
REMARK  221  A    between atoms: _546  and  _548
REMARK  222  A    between atoms: _548  and  _549
REMARK  223  A    between atoms: _548  and  _551
REMARK  224  A    between atoms: _551  and  _552
REMARK                            x       y       z     vdW  Elec       q    Type
REMARK                         _______ _______ _______ _____ _____    ______ ____
ROOT
ATOM      1  O   HOH     1      12.631  23.231  13.304  0.00  0.00    +0.000 OA
ENDROOT
TORSDOF 0
REMARK  Name = ../refined-set-2016/2nmz/2nmz_pocket.pdb
REMARK  224 active torsions:
REMARK  status: ('A' for Active; 'I' for Inactive)
REMARK    1  A    between atoms: _1  and  _3
REMARK    2  A    between atoms: _3  and  _4
REMARK    3  A    between atoms: _3  and  _6
REMARK    4  A    between atoms: _6  and  _7
REMARK    5  A    between atoms: _7  and  _8
REMARK    6  A    between atoms: _8  and  _9
REMARK    7  A    between atoms: _18  and  _20
REMARK    8  A    between atoms: _20  and  _21
REMARK    9  A    between atoms: _20  and  _23
REMARK   10  A    between atoms: _23  and  _24
REMARK   11  A    between atoms: _27  and  _29
REMARK   12  A    between atoms: _29  and  _30
REMARK   13  A    between atoms: _29  and  _32
REMARK   14  A    between atoms: _32  and  _33
REMARK   15  A    between atoms: _36  and  _38
REMARK   16  A    between atoms: _38  and  _39
REMARK   17  A    between atoms: _38  and  _41
REMARK   18  A    between atoms: _41  and  _42
REMARK   19  A    between atoms: _45  and  _47
REMARK   20  A    between atoms: _47  and  _48
REMARK   21  A    between atoms: _47  and  _50
REMARK   22  A    between atoms: _50  and  _51
REMARK   23  A    between atoms: _54  and  _56
REMARK   24  A    between atoms: _56  and  _57
REMARK   25  A    between atoms: _59  and  _61
REMARK   26  A    between atoms: _61  and  _62
REMARK   27  A    between atoms: _65  and  _67
REMARK   28  A    between atoms: _67  and  _68
REMARK   29  A    between atoms: _67  and  _70
REMARK   30  A    between atoms: _70  and  _71
REMARK   31  A    between atoms: _74  and  _76
REMARK   32  A    between atoms: _76  and  _77
REMARK   33  A    between atoms: _76  and  _79
REMARK   34  A    between atoms: _79  and  _80
REMARK   35  A    between atoms: _83  and  _85
REMARK   36  A    between atoms: _85  and  _86
REMARK   37  A    between atoms: _85  and  _88
REMARK   38  A    between atoms: _88  and  _89
REMARK   39  A    between atoms: _92  and  _94
REMARK   40  A    between atoms: _94  and  _95
REMARK   41  A    between atoms: _94  and  _97
REMARK   42  A    between atoms: _100  and  _102
REMARK   43  A    between atoms: _102  and  _103
REMARK   44  A    between atoms: _102  and  _105
REMARK   45  A    between atoms: _105  and  _106
REMARK   46  A    between atoms: _106  and  _107
REMARK   47  A    between atoms: _107  and  _108
REMARK   48  A    between atoms: _108  and  _109
REMARK   49  A    between atoms: _113  and  _115
REMARK   50  A    between atoms: _115  and  _116
REMARK   51  A    between atoms: _115  and  _118
REMARK   52  A    between atoms: _118  and  _119
REMARK   53  A    between atoms: _119  and  _120
REMARK   54  A    between atoms: _122  and  _124
REMARK   55  A    between atoms: _124  and  _125
REMARK   56  A    between atoms: _124  and  _127
REMARK   57  A    between atoms: _127  and  _128
REMARK   58  A    between atoms: _131  and  _133
REMARK   59  A    between atoms: _133  and  _134
REMARK   60  A    between atoms: _136  and  _138
REMARK   61  A    between atoms: _138  and  _139
REMARK   62  A    between atoms: _141  and  _143
REMARK   63  A    between atoms: _143  and  _144
REMARK   64  A    between atoms: _143  and  _146
REMARK   65  A    between atoms: _146  and  _147
REMARK   66  A    between atoms: _150  and  _152
REMARK   67  A    between atoms: _152  and  _153
REMARK   68  A    between atoms: _155  and  _157
REMARK   69  A    between atoms: _157  and  _158
REMARK   70  A    between atoms: _160  and  _162
REMARK   71  A    between atoms: _162  and  _163
REMARK   72  A    between atoms: _162  and  _165
REMARK   73  A    between atoms: _165  and  _166
REMARK   74  A    between atoms: _172  and  _174
REMARK   75  A    between atoms: _174  and  _175
REMARK   76  A    between atoms: _174  and  _177
REMARK   77  A    between atoms: _177  and  _178
REMARK   78  A    between atoms: _181  and  _183
REMARK   79  A    between atoms: _183  and  _184
REMARK   80  A    between atoms: _183  and  _186
REMARK   81  A    between atoms: _189  and  _191
REMARK   82  A    between atoms: _191  and  _192
REMARK   83  A    between atoms: _191  and  _194
REMARK   84  A    between atoms: _194  and  _195
REMARK   85  A    between atoms: _199  and  _200
REMARK   86  A    between atoms: _205  and  _207
REMARK   87  A    between atoms: _207  and  _208
REMARK   88  A    between atoms: _207  and  _210
REMARK   89  A    between atoms: _210  and  _211
REMARK   90  A    between atoms: _215  and  _216
REMARK   91  A    between atoms: _221  and  _223
REMARK   92  A    between atoms: _223  and  _224
REMARK   93  A    between atoms: _227  and  _229
REMARK   94  A    between atoms: _229  and  _230
REMARK   95  A    between atoms: _229  and  _232
REMARK   96  A    between atoms: _232  and  _233
REMARK   97  A    between atoms: _238  and  _240
REMARK   98  A    between atoms: _240  and  _241
REMARK   99  A    between atoms: _240  and  _243
REMARK  100  A    between atoms: _243  and  _244
REMARK  101  A    between atoms: _247  and  _249
REMARK  102  A    between atoms: _249  and  _250
REMARK  103  A    between atoms: _249  and  _252
REMARK  104  A    between atoms: _252  and  _253
REMARK  105  A    between atoms: _256  and  _258
REMARK  106  A    between atoms: _258  and  _259
REMARK  107  A    between atoms: _261  and  _263
REMARK  108  A    between atoms: _263  and  _264
REMARK  109  A    between atoms: _263  and  _266
REMARK  110  A    between atoms: _266  and  _267
REMARK  111  A    between atoms: _267  and  _268
REMARK  112  A    between atoms: _268  and  _269
REMARK  113  A    between atoms: _278  and  _280
REMARK  114  A    between atoms: _280  and  _281
REMARK  115  A    between atoms: _280  and  _283
REMARK  116  A    between atoms: _283  and  _284
REMARK  117  A    between atoms: _289  and  _291
REMARK  118  A    between atoms: _291  and  _292
REMARK  119  A    between atoms: _291  and  _294
REMARK  120  A    between atoms: _294  and  _295
REMARK  121  A    between atoms: _295  and  _296
REMARK  122  A    between atoms: _296  and  _297
REMARK  123  A    between atoms: _306  and  _308
REMARK  124  A    between atoms: _308  and  _309
REMARK  125  A    between atoms: _308  and  _311
REMARK  126  A    between atoms: _311  and  _312
REMARK  127  A    between atoms: _315  and  _317
REMARK  128  A    between atoms: _317  and  _318
REMARK  129  A    between atoms: _317  and  _320
REMARK  130  A    between atoms: _320  and  _321
REMARK  131  A    between atoms: _324  and  _326
REMARK  132  A    between atoms: _326  and  _327
REMARK  133  A    between atoms: _326  and  _329
REMARK  134  A    between atoms: _329  and  _330
REMARK  135  A    between atoms: _333  and  _335
REMARK  136  A    between atoms: _335  and  _336
REMARK  137  A    between atoms: _335  and  _338
REMARK  138  A    between atoms: _338  and  _339
REMARK  139  A    between atoms: _342  and  _344
REMARK  140  A    between atoms: _344  and  _345
REMARK  141  A    between atoms: _347  and  _349
REMARK  142  A    between atoms: _349  and  _350
REMARK  143  A    between atoms: _353  and  _355
REMARK  144  A    between atoms: _355  and  _356
REMARK  145  A    between atoms: _355  and  _358
REMARK  146  A    between atoms: _358  and  _359
REMARK  147  A    between atoms: _362  and  _364
REMARK  148  A    between atoms: _364  and  _365
REMARK  149  A    between atoms: _364  and  _367
REMARK  150  A    between atoms: _367  and  _368
REMARK  151  A    between atoms: _371  and  _373
REMARK  152  A    between atoms: _373  and  _374
REMARK  153  A    between atoms: _373  and  _376
REMARK  154  A    between atoms: _376  and  _377
REMARK  155  A    between atoms: _380  and  _382
REMARK  156  A    between atoms: _382  and  _383
REMARK  157  A    between atoms: _382  and  _385
REMARK  158  A    between atoms: _388  and  _390
REMARK  159  A    between atoms: _390  and  _391
REMARK  160  A    between atoms: _390  and  _393
REMARK  161  A    between atoms: _393  and  _394
REMARK  162  A    between atoms: _394  and  _395
REMARK  163  A    between atoms: _397  and  _399
REMARK  164  A    between atoms: _399  and  _400
REMARK  165  A    between atoms: _399  and  _402
REMARK  166  A    between atoms: _402  and  _403
REMARK  167  A    between atoms: _406  and  _408
REMARK  168  A    between atoms: _408  and  _409
REMARK  169  A    between atoms: _411  and  _413
REMARK  170  A    between atoms: _413  and  _414
REMARK  171  A    between atoms: _416  and  _418
REMARK  172  A    between atoms: _418  and  _419
REMARK  173  A    between atoms: _418  and  _421
REMARK  174  A    between atoms: _421  and  _422
REMARK  175  A    between atoms: _425  and  _427
REMARK  176  A    between atoms: _427  and  _428
REMARK  177  A    between atoms: _430  and  _432
REMARK  178  A    between atoms: _432  and  _433
REMARK  179  A    between atoms: _435  and  _437
REMARK  180  A    between atoms: _437  and  _438
REMARK  181  A    between atoms: _437  and  _440
REMARK  182  A    between atoms: _440  and  _441
REMARK  183  A    between atoms: _447  and  _449
REMARK  184  A    between atoms: _449  and  _450
REMARK  185  A    between atoms: _449  and  _452
REMARK  186  A    between atoms: _452  and  _453
REMARK  187  A    between atoms: _456  and  _458
REMARK  188  A    between atoms: _458  and  _459
REMARK  189  A    between atoms: _458  and  _461
REMARK  190  A    between atoms: _464  and  _466
REMARK  191  A    between atoms: _466  and  _467
REMARK  192  A    between atoms: _466  and  _469
REMARK  193  A    between atoms: _469  and  _470
REMARK  194  A    between atoms: _473  and  _475
REMARK  195  A    between atoms: _475  and  _476
REMARK  196  A    between atoms: _475  and  _478
REMARK  197  A    between atoms: _478  and  _479
REMARK  198  A    between atoms: _483  and  _484
REMARK  199  A    between atoms: _489  and  _491
REMARK  200  A    between atoms: _491  and  _492
REMARK  201  A    between atoms: _495  and  _497
REMARK  202  A    between atoms: _497  and  _498
REMARK  203  A    between atoms: _497  and  _500
REMARK  204  A    between atoms: _500  and  _501
REMARK  205  A    between atoms: _506  and  _508
REMARK  206  A    between atoms: _508  and  _509
REMARK  207  A    between atoms: _508  and  _511
REMARK  208  A    between atoms: _511  and  _512
REMARK  209  A    between atoms: _515  and  _517
REMARK  210  A    between atoms: _517  and  _518
REMARK  211  A    between atoms: _517  and  _520
REMARK  212  A    between atoms: _520  and  _521
REMARK  213  A    between atoms: _524  and  _526
REMARK  214  A    between atoms: _526  and  _527
REMARK  215  A    between atoms: _529  and  _531
REMARK  216  A    between atoms: _531  and  _532
REMARK  217  A    between atoms: _531  and  _534
REMARK  218  A    between atoms: _534  and  _535
REMARK  219  A    between atoms: _535  and  _536
REMARK  220  A    between atoms: _536  and  _537
REMARK  221  A    between atoms: _546  and  _548
REMARK  222  A    between atoms: _548  and  _549
REMARK  223  A    between atoms: _548  and  _551
REMARK  224  A    between atoms: _551  and  _552
REMARK                            x       y       z     vdW  Elec       q    Type
REMARK                         _______ _______ _______ _____ _____    ______ ____
ROOT
ATOM      1  O   HOH     1      10.552  37.582  21.635  0.00  0.00    +0.000 OA
ENDROOT
TORSDOF 0
REMARK  Name = ../refined-set-2016/2nmz/2nmz_pocket.pdb
REMARK  224 active torsions:
REMARK  status: ('A' for Active; 'I' for Inactive)
REMARK    1  A    between atoms: _1  and  _3
REMARK    2  A    between atoms: _3  and  _4
REMARK    3  A    between atoms: _3  and  _6
REMARK    4  A    between atoms: _6  and  _7
REMARK    5  A    between atoms: _7  and  _8
REMARK    6  A    between atoms: _8  and  _9
REMARK    7  A    between atoms: _18  and  _20
REMARK    8  A    between atoms: _20  and  _21
REMARK    9  A    between atoms: _20  and  _23
REMARK   10  A    between atoms: _23  and  _24
REMARK   11  A    between atoms: _27  and  _29
REMARK   12  A    between atoms: _29  and  _30
REMARK   13  A    between atoms: _29  and  _32
REMARK   14  A    between atoms: _32  and  _33
REMARK   15  A    between atoms: _36  and  _38
REMARK   16  A    between atoms: _38  and  _39
REMARK   17  A    between atoms: _38  and  _41
REMARK   18  A    between atoms: _41  and  _42
REMARK   19  A    between atoms: _45  and  _47
REMARK   20  A    between atoms: _47  and  _48
REMARK   21  A    between atoms: _47  and  _50
REMARK   22  A    between atoms: _50  and  _51
REMARK   23  A    between atoms: _54  and  _56
REMARK   24  A    between atoms: _56  and  _57
REMARK   25  A    between atoms: _59  and  _61
REMARK   26  A    between atoms: _61  and  _62
REMARK   27  A    between atoms: _65  and  _67
REMARK   28  A    between atoms: _67  and  _68
REMARK   29  A    between atoms: _67  and  _70
REMARK   30  A    between atoms: _70  and  _71
REMARK   31  A    between atoms: _74  and  _76
REMARK   32  A    between atoms: _76  and  _77
REMARK   33  A    between atoms: _76  and  _79
REMARK   34  A    between atoms: _79  and  _80
REMARK   35  A    between atoms: _83  and  _85
REMARK   36  A    between atoms: _85  and  _86
REMARK   37  A    between atoms: _85  and  _88
REMARK   38  A    between atoms: _88  and  _89
REMARK   39  A    between atoms: _92  and  _94
REMARK   40  A    between atoms: _94  and  _95
REMARK   41  A    between atoms: _94  and  _97
REMARK   42  A    between atoms: _100  and  _102
REMARK   43  A    between atoms: _102  and  _103
REMARK   44  A    between atoms: _102  and  _105
REMARK   45  A    between atoms: _105  and  _106
REMARK   46  A    between atoms: _106  and  _107
REMARK   47  A    between atoms: _107  and  _108
REMARK   48  A    between atoms: _108  and  _109
REMARK   49  A    between atoms: _113  and  _115
REMARK   50  A    between atoms: _115  and  _116
REMARK   51  A    between atoms: _115  and  _118
REMARK   52  A    between atoms: _118  and  _119
REMARK   53  A    between atoms: _119  and  _120
REMARK   54  A    between atoms: _122  and  _124
REMARK   55  A    between atoms: _124  and  _125
REMARK   56  A    between atoms: _124  and  _127
REMARK   57  A    between atoms: _127  and  _128
REMARK   58  A    between atoms: _131  and  _133
REMARK   59  A    between atoms: _133  and  _134
REMARK   60  A    between atoms: _136  and  _138
REMARK   61  A    between atoms: _138  and  _139
REMARK   62  A    between atoms: _141  and  _143
REMARK   63  A    between atoms: _143  and  _144
REMARK   64  A    between atoms: _143  and  _146
REMARK   65  A    between atoms: _146  and  _147
REMARK   66  A    between atoms: _150  and  _152
REMARK   67  A    between atoms: _152  and  _153
REMARK   68  A    between atoms: _155  and  _157
REMARK   69  A    between atoms: _157  and  _158
REMARK   70  A    between atoms: _160  and  _162
REMARK   71  A    between atoms: _162  and  _163
REMARK   72  A    between atoms: _162  and  _165
REMARK   73  A    between atoms: _165  and  _166
REMARK   74  A    between atoms: _172  and  _174
REMARK   75  A    between atoms: _174  and  _175
REMARK   76  A    between atoms: _174  and  _177
REMARK   77  A    between atoms: _177  and  _178
REMARK   78  A    between atoms: _181  and  _183
REMARK   79  A    between atoms: _183  and  _184
REMARK   80  A    between atoms: _183  and  _186
REMARK   81  A    between atoms: _189  and  _191
REMARK   82  A    between atoms: _191  and  _192
REMARK   83  A    between atoms: _191  and  _194
REMARK   84  A    between atoms: _194  and  _195
REMARK   85  A    between atoms: _199  and  _200
REMARK   86  A    between atoms: _205  and  _207
REMARK   87  A    between atoms: _207  and  _208
REMARK   88  A    between atoms: _207  and  _210
REMARK   89  A    between atoms: _210  and  _211
REMARK   90  A    between atoms: _215  and  _216
REMARK   91  A    between atoms: _221  and  _223
REMARK   92  A    between atoms: _223  and  _224
REMARK   93  A    between atoms: _227  and  _229
REMARK   94  A    between atoms: _229  and  _230
REMARK   95  A    between atoms: _229  and  _232
REMARK   96  A    between atoms: _232  and  _233
REMARK   97  A    between atoms: _238  and  _240
REMARK   98  A    between atoms: _240  and  _241
REMARK   99  A    between atoms: _240  and  _243
REMARK  100  A    between atoms: _243  and  _244
REMARK  101  A    between atoms: _247  and  _249
REMARK  102  A    between atoms: _249  and  _250
REMARK  103  A    between atoms: _249  and  _252
REMARK  104  A    between atoms: _252  and  _253
REMARK  105  A    between atoms: _256  and  _258
REMARK  106  A    between atoms: _258  and  _259
REMARK  107  A    between atoms: _261  and  _263
REMARK  108  A    between atoms: _263  and  _264
REMARK  109  A    between atoms: _263  and  _266
REMARK  110  A    between atoms: _266  and  _267
REMARK  111  A    between atoms: _267  and  _268
REMARK  112  A    between atoms: _268  and  _269
REMARK  113  A    between atoms: _278  and  _280
REMARK  114  A    between atoms: _280  and  _281
REMARK  115  A    between atoms: _280  and  _283
REMARK  116  A    between atoms: _283  and  _284
REMARK  117  A    between atoms: _289  and  _291
REMARK  118  A    between atoms: _291  and  _292
REMARK  119  A    between atoms: _291  and  _294
REMARK  120  A    between atoms: _294  and  _295
REMARK  121  A    between atoms: _295  and  _296
REMARK  122  A    between atoms: _296  and  _297
REMARK  123  A    between atoms: _306  and  _308
REMARK  124  A    between atoms: _308  and  _309
REMARK  125  A    between atoms: _308  and  _311
REMARK  126  A    between atoms: _311  and  _312
REMARK  127  A    between atoms: _315  and  _317
REMARK  128  A    between atoms: _317  and  _318
REMARK  129  A    between atoms: _317  and  _320
REMARK  130  A    between atoms: _320  and  _321
REMARK  131  A    between atoms: _324  and  _326
REMARK  132  A    between atoms: _326  and  _327
REMARK  133  A    between atoms: _326  and  _329
REMARK  134  A    between atoms: _329  and  _330
REMARK  135  A    between atoms: _333  and  _335
REMARK  136  A    between atoms: _335  and  _336
REMARK  137  A    between atoms: _335  and  _338
REMARK  138  A    between atoms: _338  and  _339
REMARK  139  A    between atoms: _342  and  _344
REMARK  140  A    between atoms: _344  and  _345
REMARK  141  A    between atoms: _347  and  _349
REMARK  142  A    between atoms: _349  and  _350
REMARK  143  A    between atoms: _353  and  _355
REMARK  144  A    between atoms: _355  and  _356
REMARK  145  A    between atoms: _355  and  _358
REMARK  146  A    between atoms: _358  and  _359
REMARK  147  A    between atoms: _362  and  _364
REMARK  148  A    between atoms: _364  and  _365
REMARK  149  A    between atoms: _364  and  _367
REMARK  150  A    between atoms: _367  and  _368
REMARK  151  A    between atoms: _371  and  _373
REMARK  152  A    between atoms: _373  and  _374
REMARK  153  A    between atoms: _373  and  _376
REMARK  154  A    between atoms: _376  and  _377
REMARK  155  A    between atoms: _380  and  _382
REMARK  156  A    between atoms: _382  and  _383
REMARK  157  A    between atoms: _382  and  _385
REMARK  158  A    between atoms: _388  and  _390
REMARK  159  A    between atoms: _390  and  _391
REMARK  160  A    between atoms: _390  and  _393
REMARK  161  A    between atoms: _393  and  _394
REMARK  162  A    between atoms: _394  and  _395
REMARK  163  A    between atoms: _397  and  _399
REMARK  164  A    between atoms: _399  and  _400
REMARK  165  A    between atoms: _399  and  _402
REMARK  166  A    between atoms: _402  and  _403
REMARK  167  A    between atoms: _406  and  _408
REMARK  168  A    between atoms: _408  and  _409
REMARK  169  A    between atoms: _411  and  _413
REMARK  170  A    between atoms: _413  and  _414
REMARK  171  A    between atoms: _416  and  _418
REMARK  172  A    between atoms: _418  and  _419
REMARK  173  A    between atoms: _418  and  _421
REMARK  174  A    between atoms: _421  and  _422
REMARK  175  A    between atoms: _425  and  _427
REMARK  176  A    between atoms: _427  and  _428
REMARK  177  A    between atoms: _430  and  _432
REMARK  178  A    between atoms: _432  and  _433
REMARK  179  A    between atoms: _435  and  _437
REMARK  180  A    between atoms: _437  and  _438
REMARK  181  A    between atoms: _437  and  _440
REMARK  182  A    between atoms: _440  and  _441
REMARK  183  A    between atoms: _447  and  _449
REMARK  184  A    between atoms: _449  and  _450
REMARK  185  A    between atoms: _449  and  _452
REMARK  186  A    between atoms: _452  and  _453
REMARK  187  A    between atoms: _456  and  _458
REMARK  188  A    between atoms: _458  and  _459
REMARK  189  A    between atoms: _458  and  _461
REMARK  190  A    between atoms: _464  and  _466
REMARK  191  A    between atoms: _466  and  _467
REMARK  192  A    between atoms: _466  and  _469
REMARK  193  A    between atoms: _469  and  _470
REMARK  194  A    between atoms: _473  and  _475
REMARK  195  A    between atoms: _475  and  _476
REMARK  196  A    between atoms: _475  and  _478
REMARK  197  A    between atoms: _478  and  _479
REMARK  198  A    between atoms: _483  and  _484
REMARK  199  A    between atoms: _489  and  _491
REMARK  200  A    between atoms: _491  and  _492
REMARK  201  A    between atoms: _495  and  _497
REMARK  202  A    between atoms: _497  and  _498
REMARK  203  A    between atoms: _497  and  _500
REMARK  204  A    between atoms: _500  and  _501
REMARK  205  A    between atoms: _506  and  _508
REMARK  206  A    between atoms: _508  and  _509
REMARK  207  A    between atoms: _508  and  _511
REMARK  208  A    between atoms: _511  and  _512
REMARK  209  A    between atoms: _515  and  _517
REMARK  210  A    between atoms: _517  and  _518
REMARK  211  A    between atoms: _517  and  _520
REMARK  212  A    between atoms: _520  and  _521
REMARK  213  A    between atoms: _524  and  _526
REMARK  214  A    between atoms: _526  and  _527
REMARK  215  A    between atoms: _529  and  _531
REMARK  216  A    between atoms: _531  and  _532
REMARK  217  A    between atoms: _531  and  _534
REMARK  218  A    between atoms: _534  and  _535
REMARK  219  A    between atoms: _535  and  _536
REMARK  220  A    between atoms: _536  and  _537
REMARK  221  A    between atoms: _546  and  _548
REMARK  222  A    between atoms: _548  and  _549
REMARK  223  A    between atoms: _548  and  _551
REMARK  224  A    between atoms: _551  and  _552
REMARK                            x       y       z     vdW  Elec       q    Type
REMARK                         _______ _______ _______ _____ _____    ______ ____
ROOT
ATOM      1  O   HOH     1       9.616  35.248  21.081  0.00  0.00    +0.000 OA
ENDROOT
TORSDOF 0
REMARK  Name = ../refined-set-2016/2nmz/2nmz_pocket.pdb
REMARK  224 active torsions:
REMARK  status: ('A' for Active; 'I' for Inactive)
REMARK    1  A    between atoms: _1  and  _3
REMARK    2  A    between atoms: _3  and  _4
REMARK    3  A    between atoms: _3  and  _6
REMARK    4  A    between atoms: _6  and  _7
REMARK    5  A    between atoms: _7  and  _8
REMARK    6  A    between atoms: _8  and  _9
REMARK    7  A    between atoms: _18  and  _20
REMARK    8  A    between atoms: _20  and  _21
REMARK    9  A    between atoms: _20  and  _23
REMARK   10  A    between atoms: _23  and  _24
REMARK   11  A    between atoms: _27  and  _29
REMARK   12  A    between atoms: _29  and  _30
REMARK   13  A    between atoms: _29  and  _32
REMARK   14  A    between atoms: _32  and  _33
REMARK   15  A    between atoms: _36  and  _38
REMARK   16  A    between atoms: _38  and  _39
REMARK   17  A    between atoms: _38  and  _41
REMARK   18  A    between atoms: _41  and  _42
REMARK   19  A    between atoms: _45  and  _47
REMARK   20  A    between atoms: _47  and  _48
REMARK   21  A    between atoms: _47  and  _50
REMARK   22  A    between atoms: _50  and  _51
REMARK   23  A    between atoms: _54  and  _56
REMARK   24  A    between atoms: _56  and  _57
REMARK   25  A    between atoms: _59  and  _61
REMARK   26  A    between atoms: _61  and  _62
REMARK   27  A    between atoms: _65  and  _67
REMARK   28  A    between atoms: _67  and  _68
REMARK   29  A    between atoms: _67  and  _70
REMARK   30  A    between atoms: _70  and  _71
REMARK   31  A    between atoms: _74  and  _76
REMARK   32  A    between atoms: _76  and  _77
REMARK   33  A    between atoms: _76  and  _79
REMARK   34  A    between atoms: _79  and  _80
REMARK   35  A    between atoms: _83  and  _85
REMARK   36  A    between atoms: _85  and  _86
REMARK   37  A    between atoms: _85  and  _88
REMARK   38  A    between atoms: _88  and  _89
REMARK   39  A    between atoms: _92  and  _94
REMARK   40  A    between atoms: _94  and  _95
REMARK   41  A    between atoms: _94  and  _97
REMARK   42  A    between atoms: _100  and  _102
REMARK   43  A    between atoms: _102  and  _103
REMARK   44  A    between atoms: _102  and  _105
REMARK   45  A    between atoms: _105  and  _106
REMARK   46  A    between atoms: _106  and  _107
REMARK   47  A    between atoms: _107  and  _108
REMARK   48  A    between atoms: _108  and  _109
REMARK   49  A    between atoms: _113  and  _115
REMARK   50  A    between atoms: _115  and  _116
REMARK   51  A    between atoms: _115  and  _118
REMARK   52  A    between atoms: _118  and  _119
REMARK   53  A    between atoms: _119  and  _120
REMARK   54  A    between atoms: _122  and  _124
REMARK   55  A    between atoms: _124  and  _125
REMARK   56  A    between atoms: _124  and  _127
REMARK   57  A    between atoms: _127  and  _128
REMARK   58  A    between atoms: _131  and  _133
REMARK   59  A    between atoms: _133  and  _134
REMARK   60  A    between atoms: _136  and  _138
REMARK   61  A    between atoms: _138  and  _139
REMARK   62  A    between atoms: _141  and  _143
REMARK   63  A    between atoms: _143  and  _144
REMARK   64  A    between atoms: _143  and  _146
REMARK   65  A    between atoms: _146  and  _147
REMARK   66  A    between atoms: _150  and  _152
REMARK   67  A    between atoms: _152  and  _153
REMARK   68  A    between atoms: _155  and  _157
REMARK   69  A    between atoms: _157  and  _158
REMARK   70  A    between atoms: _160  and  _162
REMARK   71  A    between atoms: _162  and  _163
REMARK   72  A    between atoms: _162  and  _165
REMARK   73  A    between atoms: _165  and  _166
REMARK   74  A    between atoms: _172  and  _174
REMARK   75  A    between atoms: _174  and  _175
REMARK   76  A    between atoms: _174  and  _177
REMARK   77  A    between atoms: _177  and  _178
REMARK   78  A    between atoms: _181  and  _183
REMARK   79  A    between atoms: _183  and  _184
REMARK   80  A    between atoms: _183  and  _186
REMARK   81  A    between atoms: _189  and  _191
REMARK   82  A    between atoms: _191  and  _192
REMARK   83  A    between atoms: _191  and  _194
REMARK   84  A    between atoms: _194  and  _195
REMARK   85  A    between atoms: _199  and  _200
REMARK   86  A    between atoms: _205  and  _207
REMARK   87  A    between atoms: _207  and  _208
REMARK   88  A    between atoms: _207  and  _210
REMARK   89  A    between atoms: _210  and  _211
REMARK   90  A    between atoms: _215  and  _216
REMARK   91  A    between atoms: _221  and  _223
REMARK   92  A    between atoms: _223  and  _224
REMARK   93  A    between atoms: _227  and  _229
REMARK   94  A    between atoms: _229  and  _230
REMARK   95  A    between atoms: _229  and  _232
REMARK   96  A    between atoms: _232  and  _233
REMARK   97  A    between atoms: _238  and  _240
REMARK   98  A    between atoms: _240  and  _241
REMARK   99  A    between atoms: _240  and  _243
REMARK  100  A    between atoms: _243  and  _244
REMARK  101  A    between atoms: _247  and  _249
REMARK  102  A    between atoms: _249  and  _250
REMARK  103  A    between atoms: _249  and  _252
REMARK  104  A    between atoms: _252  and  _253
REMARK  105  A    between atoms: _256  and  _258
REMARK  106  A    between atoms: _258  and  _259
REMARK  107  A    between atoms: _261  and  _263
REMARK  108  A    between atoms: _263  and  _264
REMARK  109  A    between atoms: _263  and  _266
REMARK  110  A    between atoms: _266  and  _267
REMARK  111  A    between atoms: _267  and  _268
REMARK  112  A    between atoms: _268  and  _269
REMARK  113  A    between atoms: _278  and  _280
REMARK  114  A    between atoms: _280  and  _281
REMARK  115  A    between atoms: _280  and  _283
REMARK  116  A    between atoms: _283  and  _284
REMARK  117  A    between atoms: _289  and  _291
REMARK  118  A    between atoms: _291  and  _292
REMARK  119  A    between atoms: _291  and  _294
REMARK  120  A    between atoms: _294  and  _295
REMARK  121  A    between atoms: _295  and  _296
REMARK  122  A    between atoms: _296  and  _297
REMARK  123  A    between atoms: _306  and  _308
REMARK  124  A    between atoms: _308  and  _309
REMARK  125  A    between atoms: _308  and  _311
REMARK  126  A    between atoms: _311  and  _312
REMARK  127  A    between atoms: _315  and  _317
REMARK  128  A    between atoms: _317  and  _318
REMARK  129  A    between atoms: _317  and  _320
REMARK  130  A    between atoms: _320  and  _321
REMARK  131  A    between atoms: _324  and  _326
REMARK  132  A    between atoms: _326  and  _327
REMARK  133  A    between atoms: _326  and  _329
REMARK  134  A    between atoms: _329  and  _330
REMARK  135  A    between atoms: _333  and  _335
REMARK  136  A    between atoms: _335  and  _336
REMARK  137  A    between atoms: _335  and  _338
REMARK  138  A    between atoms: _338  and  _339
REMARK  139  A    between atoms: _342  and  _344
REMARK  140  A    between atoms: _344  and  _345
REMARK  141  A    between atoms: _347  and  _349
REMARK  142  A    between atoms: _349  and  _350
REMARK  143  A    between atoms: _353  and  _355
REMARK  144  A    between atoms: _355  and  _356
REMARK  145  A    between atoms: _355  and  _358
REMARK  146  A    between atoms: _358  and  _359
REMARK  147  A    between atoms: _362  and  _364
REMARK  148  A    between atoms: _364  and  _365
REMARK  149  A    between atoms: _364  and  _367
REMARK  150  A    between atoms: _367  and  _368
REMARK  151  A    between atoms: _371  and  _373
REMARK  152  A    between atoms: _373  and  _374
REMARK  153  A    between atoms: _373  and  _376
REMARK  154  A    between atoms: _376  and  _377
REMARK  155  A    between atoms: _380  and  _382
REMARK  156  A    between atoms: _382  and  _383
REMARK  157  A    between atoms: _382  and  _385
REMARK  158  A    between atoms: _388  and  _390
REMARK  159  A    between atoms: _390  and  _391
REMARK  160  A    between atoms: _390  and  _393
REMARK  161  A    between atoms: _393  and  _394
REMARK  162  A    between atoms: _394  and  _395
REMARK  163  A    between atoms: _397  and  _399
REMARK  164  A    between atoms: _399  and  _400
REMARK  165  A    between atoms: _399  and  _402
REMARK  166  A    between atoms: _402  and  _403
REMARK  167  A    between atoms: _406  and  _408
REMARK  168  A    between atoms: _408  and  _409
REMARK  169  A    between atoms: _411  and  _413
REMARK  170  A    between atoms: _413  and  _414
REMARK  171  A    between atoms: _416  and  _418
REMARK  172  A    between atoms: _418  and  _419
REMARK  173  A    between atoms: _418  and  _421
REMARK  174  A    between atoms: _421  and  _422
REMARK  175  A    between atoms: _425  and  _427
REMARK  176  A    between atoms: _427  and  _428
REMARK  177  A    between atoms: _430  and  _432
REMARK  178  A    between atoms: _432  and  _433
REMARK  179  A    between atoms: _435  and  _437
REMARK  180  A    between atoms: _437  and  _438
REMARK  181  A    between atoms: _437  and  _440
REMARK  182  A    between atoms: _440  and  _441
REMARK  183  A    between atoms: _447  and  _449
REMARK  184  A    between atoms: _449  and  _450
REMARK  185  A    between atoms: _449  and  _452
REMARK  186  A    between atoms: _452  and  _453
REMARK  187  A    between atoms: _456  and  _458
REMARK  188  A    between atoms: _458  and  _459
REMARK  189  A    between atoms: _458  and  _461
REMARK  190  A    between atoms: _464  and  _466
REMARK  191  A    between atoms: _466  and  _467
REMARK  192  A    between atoms: _466  and  _469
REMARK  193  A    between atoms: _469  and  _470
REMARK  194  A    between atoms: _473  and  _475
REMARK  195  A    between atoms: _475  and  _476
REMARK  196  A    between atoms: _475  and  _478
REMARK  197  A    between atoms: _478  and  _479
REMARK  198  A    between atoms: _483  and  _484
REMARK  199  A    between atoms: _489  and  _491
REMARK  200  A    between atoms: _491  and  _492
REMARK  201  A    between atoms: _495  and  _497
REMARK  202  A    between atoms: _497  and  _498
REMARK  203  A    between atoms: _497  and  _500
REMARK  204  A    between atoms: _500  and  _501
REMARK  205  A    between atoms: _506  and  _508
REMARK  206  A    between atoms: _508  and  _509
REMARK  207  A    between atoms: _508  and  _511
REMARK  208  A    between atoms: _511  and  _512
REMARK  209  A    between atoms: _515  and  _517
REMARK  210  A    between atoms: _517  and  _518
REMARK  211  A    between atoms: _517  and  _520
REMARK  212  A    between atoms: _520  and  _521
REMARK  213  A    between atoms: _524  and  _526
REMARK  214  A    between atoms: _526  and  _527
REMARK  215  A    between atoms: _529  and  _531
REMARK  216  A    between atoms: _531  and  _532
REMARK  217  A    between atoms: _531  and  _534
REMARK  218  A    between atoms: _534  and  _535
REMARK  219  A    between atoms: _535  and  _536
REMARK  220  A    between atoms: _536  and  _537
REMARK  221  A    between atoms: _546  and  _548
REMARK  222  A    between atoms: _548  and  _549
REMARK  223  A    between atoms: _548  and  _551
REMARK  224  A    between atoms: _551  and  _552
REMARK                            x       y       z     vdW  Elec       q    Type
REMARK                         _______ _______ _______ _____ _____    ______ ____
ROOT
ATOM      1  O   HOH     1      20.438  44.109  16.235  0.00  0.00    +0.000 OA
ENDROOT
TORSDOF 0
REMARK  Name = ../refined-set-2016/2nmz/2nmz_pocket.pdb
REMARK  224 active torsions:
REMARK  status: ('A' for Active; 'I' for Inactive)
REMARK    1  A    between atoms: _1  and  _3
REMARK    2  A    between atoms: _3  and  _4
REMARK    3  A    between atoms: _3  and  _6
REMARK    4  A    between atoms: _6  and  _7
REMARK    5  A    between atoms: _7  and  _8
REMARK    6  A    between atoms: _8  and  _9
REMARK    7  A    between atoms: _18  and  _20
REMARK    8  A    between atoms: _20  and  _21
REMARK    9  A    between atoms: _20  and  _23
REMARK   10  A    between atoms: _23  and  _24
REMARK   11  A    between atoms: _27  and  _29
REMARK   12  A    between atoms: _29  and  _30
REMARK   13  A    between atoms: _29  and  _32
REMARK   14  A    between atoms: _32  and  _33
REMARK   15  A    between atoms: _36  and  _38
REMARK   16  A    between atoms: _38  and  _39
REMARK   17  A    between atoms: _38  and  _41
REMARK   18  A    between atoms: _41  and  _42
REMARK   19  A    between atoms: _45  and  _47
REMARK   20  A    between atoms: _47  and  _48
REMARK   21  A    between atoms: _47  and  _50
REMARK   22  A    between atoms: _50  and  _51
REMARK   23  A    between atoms: _54  and  _56
REMARK   24  A    between atoms: _56  and  _57
REMARK   25  A    between atoms: _59  and  _61
REMARK   26  A    between atoms: _61  and  _62
REMARK   27  A    between atoms: _65  and  _67
REMARK   28  A    between atoms: _67  and  _68
REMARK   29  A    between atoms: _67  and  _70
REMARK   30  A    between atoms: _70  and  _71
REMARK   31  A    between atoms: _74  and  _76
REMARK   32  A    between atoms: _76  and  _77
REMARK   33  A    between atoms: _76  and  _79
REMARK   34  A    between atoms: _79  and  _80
REMARK   35  A    between atoms: _83  and  _85
REMARK   36  A    between atoms: _85  and  _86
REMARK   37  A    between atoms: _85  and  _88
REMARK   38  A    between atoms: _88  and  _89
REMARK   39  A    between atoms: _92  and  _94
REMARK   40  A    between atoms: _94  and  _95
REMARK   41  A    between atoms: _94  and  _97
REMARK   42  A    between atoms: _100  and  _102
REMARK   43  A    between atoms: _102  and  _103
REMARK   44  A    between atoms: _102  and  _105
REMARK   45  A    between atoms: _105  and  _106
REMARK   46  A    between atoms: _106  and  _107
REMARK   47  A    between atoms: _107  and  _108
REMARK   48  A    between atoms: _108  and  _109
REMARK   49  A    between atoms: _113  and  _115
REMARK   50  A    between atoms: _115  and  _116
REMARK   51  A    between atoms: _115  and  _118
REMARK   52  A    between atoms: _118  and  _119
REMARK   53  A    between atoms: _119  and  _120
REMARK   54  A    between atoms: _122  and  _124
REMARK   55  A    between atoms: _124  and  _125
REMARK   56  A    between atoms: _124  and  _127
REMARK   57  A    between atoms: _127  and  _128
REMARK   58  A    between atoms: _131  and  _133
REMARK   59  A    between atoms: _133  and  _134
REMARK   60  A    between atoms: _136  and  _138
REMARK   61  A    between atoms: _138  and  _139
REMARK   62  A    between atoms: _141  and  _143
REMARK   63  A    between atoms: _143  and  _144
REMARK   64  A    between atoms: _143  and  _146
REMARK   65  A    between atoms: _146  and  _147
REMARK   66  A    between atoms: _150  and  _152
REMARK   67  A    between atoms: _152  and  _153
REMARK   68  A    between atoms: _155  and  _157
REMARK   69  A    between atoms: _157  and  _158
REMARK   70  A    between atoms: _160  and  _162
REMARK   71  A    between atoms: _162  and  _163
REMARK   72  A    between atoms: _162  and  _165
REMARK   73  A    between atoms: _165  and  _166
REMARK   74  A    between atoms: _172  and  _174
REMARK   75  A    between atoms: _174  and  _175
REMARK   76  A    between atoms: _174  and  _177
REMARK   77  A    between atoms: _177  and  _178
REMARK   78  A    between atoms: _181  and  _183
REMARK   79  A    between atoms: _183  and  _184
REMARK   80  A    between atoms: _183  and  _186
REMARK   81  A    between atoms: _189  and  _191
REMARK   82  A    between atoms: _191  and  _192
REMARK   83  A    between atoms: _191  and  _194
REMARK   84  A    between atoms: _194  and  _195
REMARK   85  A    between atoms: _199  and  _200
REMARK   86  A    between atoms: _205  and  _207
REMARK   87  A    between atoms: _207  and  _208
REMARK   88  A    between atoms: _207  and  _210
REMARK   89  A    between atoms: _210  and  _211
REMARK   90  A    between atoms: _215  and  _216
REMARK   91  A    between atoms: _221  and  _223
REMARK   92  A    between atoms: _223  and  _224
REMARK   93  A    between atoms: _227  and  _229
REMARK   94  A    between atoms: _229  and  _230
REMARK   95  A    between atoms: _229  and  _232
REMARK   96  A    between atoms: _232  and  _233
REMARK   97  A    between atoms: _238  and  _240
REMARK   98  A    between atoms: _240  and  _241
REMARK   99  A    between atoms: _240  and  _243
REMARK  100  A    between atoms: _243  and  _244
REMARK  101  A    between atoms: _247  and  _249
REMARK  102  A    between atoms: _249  and  _250
REMARK  103  A    between atoms: _249  and  _252
REMARK  104  A    between atoms: _252  and  _253
REMARK  105  A    between atoms: _256  and  _258
REMARK  106  A    between atoms: _258  and  _259
REMARK  107  A    between atoms: _261  and  _263
REMARK  108  A    between atoms: _263  and  _264
REMARK  109  A    between atoms: _263  and  _266
REMARK  110  A    between atoms: _266  and  _267
REMARK  111  A    between atoms: _267  and  _268
REMARK  112  A    between atoms: _268  and  _269
REMARK  113  A    between atoms: _278  and  _280
REMARK  114  A    between atoms: _280  and  _281
REMARK  115  A    between atoms: _280  and  _283
REMARK  116  A    between atoms: _283  and  _284
REMARK  117  A    between atoms: _289  and  _291
REMARK  118  A    between atoms: _291  and  _292
REMARK  119  A    between atoms: _291  and  _294
REMARK  120  A    between atoms: _294  and  _295
REMARK  121  A    between atoms: _295  and  _296
REMARK  122  A    between atoms: _296  and  _297
REMARK  123  A    between atoms: _306  and  _308
REMARK  124  A    between atoms: _308  and  _309
REMARK  125  A    between atoms: _308  and  _311
REMARK  126  A    between atoms: _311  and  _312
REMARK  127  A    between atoms: _315  and  _317
REMARK  128  A    between atoms: _317  and  _318
REMARK  129  A    between atoms: _317  and  _320
REMARK  130  A    between atoms: _320  and  _321
REMARK  131  A    between atoms: _324  and  _326
REMARK  132  A    between atoms: _326  and  _327
REMARK  133  A    between atoms: _326  and  _329
REMARK  134  A    between atoms: _329  and  _330
REMARK  135  A    between atoms: _333  and  _335
REMARK  136  A    between atoms: _335  and  _336
REMARK  137  A    between atoms: _335  and  _338
REMARK  138  A    between atoms: _338  and  _339
REMARK  139  A    between atoms: _342  and  _344
REMARK  140  A    between atoms: _344  and  _345
REMARK  141  A    between atoms: _347  and  _349
REMARK  142  A    between atoms: _349  and  _350
REMARK  143  A    between atoms: _353  and  _355
REMARK  144  A    between atoms: _355  and  _356
REMARK  145  A    between atoms: _355  and  _358
REMARK  146  A    between atoms: _358  and  _359
REMARK  147  A    between atoms: _362  and  _364
REMARK  148  A    between atoms: _364  and  _365
REMARK  149  A    between atoms: _364  and  _367
REMARK  150  A    between atoms: _367  and  _368
REMARK  151  A    between atoms: _371  and  _373
REMARK  152  A    between atoms: _373  and  _374
REMARK  153  A    between atoms: _373  and  _376
REMARK  154  A    between atoms: _376  and  _377
REMARK  155  A    between atoms: _380  and  _382
REMARK  156  A    between atoms: _382  and  _383
REMARK  157  A    between atoms: _382  and  _385
REMARK  158  A    between atoms: _388  and  _390
REMARK  159  A    between atoms: _390  and  _391
REMARK  160  A    between atoms: _390  and  _393
REMARK  161  A    between atoms: _393  and  _394
REMARK  162  A    between atoms: _394  and  _395
REMARK  163  A    between atoms: _397  and  _399
REMARK  164  A    between atoms: _399  and  _400
REMARK  165  A    between atoms: _399  and  _402
REMARK  166  A    between atoms: _402  and  _403
REMARK  167  A    between atoms: _406  and  _408
REMARK  168  A    between atoms: _408  and  _409
REMARK  169  A    between atoms: _411  and  _413
REMARK  170  A    between atoms: _413  and  _414
REMARK  171  A    between atoms: _416  and  _418
REMARK  172  A    between atoms: _418  and  _419
REMARK  173  A    between atoms: _418  and  _421
REMARK  174  A    between atoms: _421  and  _422
REMARK  175  A    between atoms: _425  and  _427
REMARK  176  A    between atoms: _427  and  _428
REMARK  177  A    between atoms: _430  and  _432
REMARK  178  A    between atoms: _432  and  _433
REMARK  179  A    between atoms: _435  and  _437
REMARK  180  A    between atoms: _437  and  _438
REMARK  181  A    between atoms: _437  and  _440
REMARK  182  A    between atoms: _440  and  _441
REMARK  183  A    between atoms: _447  and  _449
REMARK  184  A    between atoms: _449  and  _450
REMARK  185  A    between atoms: _449  and  _452
REMARK  186  A    between atoms: _452  and  _453
REMARK  187  A    between atoms: _456  and  _458
REMARK  188  A    between atoms: _458  and  _459
REMARK  189  A    between atoms: _458  and  _461
REMARK  190  A    between atoms: _464  and  _466
REMARK  191  A    between atoms: _466  and  _467
REMARK  192  A    between atoms: _466  and  _469
REMARK  193  A    between atoms: _469  and  _470
REMARK  194  A    between atoms: _473  and  _475
REMARK  195  A    between atoms: _475  and  _476
REMARK  196  A    between atoms: _475  and  _478
REMARK  197  A    between atoms: _478  and  _479
REMARK  198  A    between atoms: _483  and  _484
REMARK  199  A    between atoms: _489  and  _491
REMARK  200  A    between atoms: _491  and  _492
REMARK  201  A    between atoms: _495  and  _497
REMARK  202  A    between atoms: _497  and  _498
REMARK  203  A    between atoms: _497  and  _500
REMARK  204  A    between atoms: _500  and  _501
REMARK  205  A    between atoms: _506  and  _508
REMARK  206  A    between atoms: _508  and  _509
REMARK  207  A    between atoms: _508  and  _511
REMARK  208  A    between atoms: _511  and  _512
REMARK  209  A    between atoms: _515  and  _517
REMARK  210  A    between atoms: _517  and  _518
REMARK  211  A    between atoms: _517  and  _520
REMARK  212  A    between atoms: _520  and  _521
REMARK  213  A    between atoms: _524  and  _526
REMARK  214  A    between atoms: _526  and  _527
REMARK  215  A    between atoms: _529  and  _531
REMARK  216  A    between atoms: _531  and  _532
REMARK  217  A    between atoms: _531  and  _534
REMARK  218  A    between atoms: _534  and  _535
REMARK  219  A    between atoms: _535  and  _536
REMARK  220  A    between atoms: _536  and  _537
REMARK  221  A    between atoms: _546  and  _548
REMARK  222  A    between atoms: _548  and  _549
REMARK  223  A    between atoms: _548  and  _551
REMARK  224  A    between atoms: _551  and  _552
REMARK                            x       y       z     vdW  Elec       q    Type
REMARK                         _______ _______ _______ _____ _____    ______ ____
ROOT
ATOM      1  O   HOH     1      17.054  39.644  20.757  0.00  0.00    +0.000 OA
ENDROOT
TORSDOF 0
REMARK  Name = ../refined-set-2016/2nmz/2nmz_pocket.pdb
REMARK  224 active torsions:
REMARK  status: ('A' for Active; 'I' for Inactive)
REMARK    1  A    between atoms: _1  and  _3
REMARK    2  A    between atoms: _3  and  _4
REMARK    3  A    between atoms: _3  and  _6
REMARK    4  A    between atoms: _6  and  _7
REMARK    5  A    between atoms: _7  and  _8
REMARK    6  A    between atoms: _8  and  _9
REMARK    7  A    between atoms: _18  and  _20
REMARK    8  A    between atoms: _20  and  _21
REMARK    9  A    between atoms: _20  and  _23
REMARK   10  A    between atoms: _23  and  _24
REMARK   11  A    between atoms: _27  and  _29
REMARK   12  A    between atoms: _29  and  _30
REMARK   13  A    between atoms: _29  and  _32
REMARK   14  A    between atoms: _32  and  _33
REMARK   15  A    between atoms: _36  and  _38
REMARK   16  A    between atoms: _38  and  _39
REMARK   17  A    between atoms: _38  and  _41
REMARK   18  A    between atoms: _41  and  _42
REMARK   19  A    between atoms: _45  and  _47
REMARK   20  A    between atoms: _47  and  _48
REMARK   21  A    between atoms: _47  and  _50
REMARK   22  A    between atoms: _50  and  _51
REMARK   23  A    between atoms: _54  and  _56
REMARK   24  A    between atoms: _56  and  _57
REMARK   25  A    between atoms: _59  and  _61
REMARK   26  A    between atoms: _61  and  _62
REMARK   27  A    between atoms: _65  and  _67
REMARK   28  A    between atoms: _67  and  _68
REMARK   29  A    between atoms: _67  and  _70
REMARK   30  A    between atoms: _70  and  _71
REMARK   31  A    between atoms: _74  and  _76
REMARK   32  A    between atoms: _76  and  _77
REMARK   33  A    between atoms: _76  and  _79
REMARK   34  A    between atoms: _79  and  _80
REMARK   35  A    between atoms: _83  and  _85
REMARK   36  A    between atoms: _85  and  _86
REMARK   37  A    between atoms: _85  and  _88
REMARK   38  A    between atoms: _88  and  _89
REMARK   39  A    between atoms: _92  and  _94
REMARK   40  A    between atoms: _94  and  _95
REMARK   41  A    between atoms: _94  and  _97
REMARK   42  A    between atoms: _100  and  _102
REMARK   43  A    between atoms: _102  and  _103
REMARK   44  A    between atoms: _102  and  _105
REMARK   45  A    between atoms: _105  and  _106
REMARK   46  A    between atoms: _106  and  _107
REMARK   47  A    between atoms: _107  and  _108
REMARK   48  A    between atoms: _108  and  _109
REMARK   49  A    between atoms: _113  and  _115
REMARK   50  A    between atoms: _115  and  _116
REMARK   51  A    between atoms: _115  and  _118
REMARK   52  A    between atoms: _118  and  _119
REMARK   53  A    between atoms: _119  and  _120
REMARK   54  A    between atoms: _122  and  _124
REMARK   55  A    between atoms: _124  and  _125
REMARK   56  A    between atoms: _124  and  _127
REMARK   57  A    between atoms: _127  and  _128
REMARK   58  A    between atoms: _131  and  _133
REMARK   59  A    between atoms: _133  and  _134
REMARK   60  A    between atoms: _136  and  _138
REMARK   61  A    between atoms: _138  and  _139
REMARK   62  A    between atoms: _141  and  _143
REMARK   63  A    between atoms: _143  and  _144
REMARK   64  A    between atoms: _143  and  _146
REMARK   65  A    between atoms: _146  and  _147
REMARK   66  A    between atoms: _150  and  _152
REMARK   67  A    between atoms: _152  and  _153
REMARK   68  A    between atoms: _155  and  _157
REMARK   69  A    between atoms: _157  and  _158
REMARK   70  A    between atoms: _160  and  _162
REMARK   71  A    between atoms: _162  and  _163
REMARK   72  A    between atoms: _162  and  _165
REMARK   73  A    between atoms: _165  and  _166
REMARK   74  A    between atoms: _172  and  _174
REMARK   75  A    between atoms: _174  and  _175
REMARK   76  A    between atoms: _174  and  _177
REMARK   77  A    between atoms: _177  and  _178
REMARK   78  A    between atoms: _181  and  _183
REMARK   79  A    between atoms: _183  and  _184
REMARK   80  A    between atoms: _183  and  _186
REMARK   81  A    between atoms: _189  and  _191
REMARK   82  A    between atoms: _191  and  _192
REMARK   83  A    between atoms: _191  and  _194
REMARK   84  A    between atoms: _194  and  _195
REMARK   85  A    between atoms: _199  and  _200
REMARK   86  A    between atoms: _205  and  _207
REMARK   87  A    between atoms: _207  and  _208
REMARK   88  A    between atoms: _207  and  _210
REMARK   89  A    between atoms: _210  and  _211
REMARK   90  A    between atoms: _215  and  _216
REMARK   91  A    between atoms: _221  and  _223
REMARK   92  A    between atoms: _223  and  _224
REMARK   93  A    between atoms: _227  and  _229
REMARK   94  A    between atoms: _229  and  _230
REMARK   95  A    between atoms: _229  and  _232
REMARK   96  A    between atoms: _232  and  _233
REMARK   97  A    between atoms: _238  and  _240
REMARK   98  A    between atoms: _240  and  _241
REMARK   99  A    between atoms: _240  and  _243
REMARK  100  A    between atoms: _243  and  _244
REMARK  101  A    between atoms: _247  and  _249
REMARK  102  A    between atoms: _249  and  _250
REMARK  103  A    between atoms: _249  and  _252
REMARK  104  A    between atoms: _252  and  _253
REMARK  105  A    between atoms: _256  and  _258
REMARK  106  A    between atoms: _258  and  _259
REMARK  107  A    between atoms: _261  and  _263
REMARK  108  A    between atoms: _263  and  _264
REMARK  109  A    between atoms: _263  and  _266
REMARK  110  A    between atoms: _266  and  _267
REMARK  111  A    between atoms: _267  and  _268
REMARK  112  A    between atoms: _268  and  _269
REMARK  113  A    between atoms: _278  and  _280
REMARK  114  A    between atoms: _280  and  _281
REMARK  115  A    between atoms: _280  and  _283
REMARK  116  A    between atoms: _283  and  _284
REMARK  117  A    between atoms: _289  and  _291
REMARK  118  A    between atoms: _291  and  _292
REMARK  119  A    between atoms: _291  and  _294
REMARK  120  A    between atoms: _294  and  _295
REMARK  121  A    between atoms: _295  and  _296
REMARK  122  A    between atoms: _296  and  _297
REMARK  123  A    between atoms: _306  and  _308
REMARK  124  A    between atoms: _308  and  _309
REMARK  125  A    between atoms: _308  and  _311
REMARK  126  A    between atoms: _311  and  _312
REMARK  127  A    between atoms: _315  and  _317
REMARK  128  A    between atoms: _317  and  _318
REMARK  129  A    between atoms: _317  and  _320
REMARK  130  A    between atoms: _320  and  _321
REMARK  131  A    between atoms: _324  and  _326
REMARK  132  A    between atoms: _326  and  _327
REMARK  133  A    between atoms: _326  and  _329
REMARK  134  A    between atoms: _329  and  _330
REMARK  135  A    between atoms: _333  and  _335
REMARK  136  A    between atoms: _335  and  _336
REMARK  137  A    between atoms: _335  and  _338
REMARK  138  A    between atoms: _338  and  _339
REMARK  139  A    between atoms: _342  and  _344
REMARK  140  A    between atoms: _344  and  _345
REMARK  141  A    between atoms: _347  and  _349
REMARK  142  A    between atoms: _349  and  _350
REMARK  143  A    between atoms: _353  and  _355
REMARK  144  A    between atoms: _355  and  _356
REMARK  145  A    between atoms: _355  and  _358
REMARK  146  A    between atoms: _358  and  _359
REMARK  147  A    between atoms: _362  and  _364
REMARK  148  A    between atoms: _364  and  _365
REMARK  149  A    between atoms: _364  and  _367
REMARK  150  A    between atoms: _367  and  _368
REMARK  151  A    between atoms: _371  and  _373
REMARK  152  A    between atoms: _373  and  _374
REMARK  153  A    between atoms: _373  and  _376
REMARK  154  A    between atoms: _376  and  _377
REMARK  155  A    between atoms: _380  and  _382
REMARK  156  A    between atoms: _382  and  _383
REMARK  157  A    between atoms: _382  and  _385
REMARK  158  A    between atoms: _388  and  _390
REMARK  159  A    between atoms: _390  and  _391
REMARK  160  A    between atoms: _390  and  _393
REMARK  161  A    between atoms: _393  and  _394
REMARK  162  A    between atoms: _394  and  _395
REMARK  163  A    between atoms: _397  and  _399
REMARK  164  A    between atoms: _399  and  _400
REMARK  165  A    between atoms: _399  and  _402
REMARK  166  A    between atoms: _402  and  _403
REMARK  167  A    between atoms: _406  and  _408
REMARK  168  A    between atoms: _408  and  _409
REMARK  169  A    between atoms: _411  and  _413
REMARK  170  A    between atoms: _413  and  _414
REMARK  171  A    between atoms: _416  and  _418
REMARK  172  A    between atoms: _418  and  _419
REMARK  173  A    between atoms: _418  and  _421
REMARK  174  A    between atoms: _421  and  _422
REMARK  175  A    between atoms: _425  and  _427
REMARK  176  A    between atoms: _427  and  _428
REMARK  177  A    between atoms: _430  and  _432
REMARK  178  A    between atoms: _432  and  _433
REMARK  179  A    between atoms: _435  and  _437
REMARK  180  A    between atoms: _437  and  _438
REMARK  181  A    between atoms: _437  and  _440
REMARK  182  A    between atoms: _440  and  _441
REMARK  183  A    between atoms: _447  and  _449
REMARK  184  A    between atoms: _449  and  _450
REMARK  185  A    between atoms: _449  and  _452
REMARK  186  A    between atoms: _452  and  _453
REMARK  187  A    between atoms: _456  and  _458
REMARK  188  A    between atoms: _458  and  _459
REMARK  189  A    between atoms: _458  and  _461
REMARK  190  A    between atoms: _464  and  _466
REMARK  191  A    between atoms: _466  and  _467
REMARK  192  A    between atoms: _466  and  _469
REMARK  193  A    between atoms: _469  and  _470
REMARK  194  A    between atoms: _473  and  _475
REMARK  195  A    between atoms: _475  and  _476
REMARK  196  A    between atoms: _475  and  _478
REMARK  197  A    between atoms: _478  and  _479
REMARK  198  A    between atoms: _483  and  _484
REMARK  199  A    between atoms: _489  and  _491
REMARK  200  A    between atoms: _491  and  _492
REMARK  201  A    between atoms: _495  and  _497
REMARK  202  A    between atoms: _497  and  _498
REMARK  203  A    between atoms: _497  and  _500
REMARK  204  A    between atoms: _500  and  _501
REMARK  205  A    between atoms: _506  and  _508
REMARK  206  A    between atoms: _508  and  _509
REMARK  207  A    between atoms: _508  and  _511
REMARK  208  A    between atoms: _511  and  _512
REMARK  209  A    between atoms: _515  and  _517
REMARK  210  A    between atoms: _517  and  _518
REMARK  211  A    between atoms: _517  and  _520
REMARK  212  A    between atoms: _520  and  _521
REMARK  213  A    between atoms: _524  and  _526
REMARK  214  A    between atoms: _526  and  _527
REMARK  215  A    between atoms: _529  and  _531
REMARK  216  A    between atoms: _531  and  _532
REMARK  217  A    between atoms: _531  and  _534
REMARK  218  A    between atoms: _534  and  _535
REMARK  219  A    between atoms: _535  and  _536
REMARK  220  A    between atoms: _536  and  _537
REMARK  221  A    between atoms: _546  and  _548
REMARK  222  A    between atoms: _548  and  _549
REMARK  223  A    between atoms: _548  and  _551
REMARK  224  A    between atoms: _551  and  _552
REMARK                            x       y       z     vdW  Elec       q    Type
REMARK                         _______ _______ _______ _____ _____    ______ ____
ROOT
ATOM      1  O   HOH     1      15.573  39.538  18.624  0.00  0.00    +0.000 OA
ENDROOT
TORSDOF 0
REMARK  Name = ../refined-set-2016/2nmz/2nmz_pocket.pdb
REMARK  224 active torsions:
REMARK  status: ('A' for Active; 'I' for Inactive)
REMARK    1  A    between atoms: _1  and  _3
REMARK    2  A    between atoms: _3  and  _4
REMARK    3  A    between atoms: _3  and  _6
REMARK    4  A    between atoms: _6  and  _7
REMARK    5  A    between atoms: _7  and  _8
REMARK    6  A    between atoms: _8  and  _9
REMARK    7  A    between atoms: _18  and  _20
REMARK    8  A    between atoms: _20  and  _21
REMARK    9  A    between atoms: _20  and  _23
REMARK   10  A    between atoms: _23  and  _24
REMARK   11  A    between atoms: _27  and  _29
REMARK   12  A    between atoms: _29  and  _30
REMARK   13  A    between atoms: _29  and  _32
REMARK   14  A    between atoms: _32  and  _33
REMARK   15  A    between atoms: _36  and  _38
REMARK   16  A    between atoms: _38  and  _39
REMARK   17  A    between atoms: _38  and  _41
REMARK   18  A    between atoms: _41  and  _42
REMARK   19  A    between atoms: _45  and  _47
REMARK   20  A    between atoms: _47  and  _48
REMARK   21  A    between atoms: _47  and  _50
REMARK   22  A    between atoms: _50  and  _51
REMARK   23  A    between atoms: _54  and  _56
REMARK   24  A    between atoms: _56  and  _57
REMARK   25  A    between atoms: _59  and  _61
REMARK   26  A    between atoms: _61  and  _62
REMARK   27  A    between atoms: _65  and  _67
REMARK   28  A    between atoms: _67  and  _68
REMARK   29  A    between atoms: _67  and  _70
REMARK   30  A    between atoms: _70  and  _71
REMARK   31  A    between atoms: _74  and  _76
REMARK   32  A    between atoms: _76  and  _77
REMARK   33  A    between atoms: _76  and  _79
REMARK   34  A    between atoms: _79  and  _80
REMARK   35  A    between atoms: _83  and  _85
REMARK   36  A    between atoms: _85  and  _86
REMARK   37  A    between atoms: _85  and  _88
REMARK   38  A    between atoms: _88  and  _89
REMARK   39  A    between atoms: _92  and  _94
REMARK   40  A    between atoms: _94  and  _95
REMARK   41  A    between atoms: _94  and  _97
REMARK   42  A    between atoms: _100  and  _102
REMARK   43  A    between atoms: _102  and  _103
REMARK   44  A    between atoms: _102  and  _105
REMARK   45  A    between atoms: _105  and  _106
REMARK   46  A    between atoms: _106  and  _107
REMARK   47  A    between atoms: _107  and  _108
REMARK   48  A    between atoms: _108  and  _109
REMARK   49  A    between atoms: _113  and  _115
REMARK   50  A    between atoms: _115  and  _116
REMARK   51  A    between atoms: _115  and  _118
REMARK   52  A    between atoms: _118  and  _119
REMARK   53  A    between atoms: _119  and  _120
REMARK   54  A    between atoms: _122  and  _124
REMARK   55  A    between atoms: _124  and  _125
REMARK   56  A    between atoms: _124  and  _127
REMARK   57  A    between atoms: _127  and  _128
REMARK   58  A    between atoms: _131  and  _133
REMARK   59  A    between atoms: _133  and  _134
REMARK   60  A    between atoms: _136  and  _138
REMARK   61  A    between atoms: _138  and  _139
REMARK   62  A    between atoms: _141  and  _143
REMARK   63  A    between atoms: _143  and  _144
REMARK   64  A    between atoms: _143  and  _146
REMARK   65  A    between atoms: _146  and  _147
REMARK   66  A    between atoms: _150  and  _152
REMARK   67  A    between atoms: _152  and  _153
REMARK   68  A    between atoms: _155  and  _157
REMARK   69  A    between atoms: _157  and  _158
REMARK   70  A    between atoms: _160  and  _162
REMARK   71  A    between atoms: _162  and  _163
REMARK   72  A    between atoms: _162  and  _165
REMARK   73  A    between atoms: _165  and  _166
REMARK   74  A    between atoms: _172  and  _174
REMARK   75  A    between atoms: _174  and  _175
REMARK   76  A    between atoms: _174  and  _177
REMARK   77  A    between atoms: _177  and  _178
REMARK   78  A    between atoms: _181  and  _183
REMARK   79  A    between atoms: _183  and  _184
REMARK   80  A    between atoms: _183  and  _186
REMARK   81  A    between atoms: _189  and  _191
REMARK   82  A    between atoms: _191  and  _192
REMARK   83  A    between atoms: _191  and  _194
REMARK   84  A    between atoms: _194  and  _195
REMARK   85  A    between atoms: _199  and  _200
REMARK   86  A    between atoms: _205  and  _207
REMARK   87  A    between atoms: _207  and  _208
REMARK   88  A    between atoms: _207  and  _210
REMARK   89  A    between atoms: _210  and  _211
REMARK   90  A    between atoms: _215  and  _216
REMARK   91  A    between atoms: _221  and  _223
REMARK   92  A    between atoms: _223  and  _224
REMARK   93  A    between atoms: _227  and  _229
REMARK   94  A    between atoms: _229  and  _230
REMARK   95  A    between atoms: _229  and  _232
REMARK   96  A    between atoms: _232  and  _233
REMARK   97  A    between atoms: _238  and  _240
REMARK   98  A    between atoms: _240  and  _241
REMARK   99  A    between atoms: _240  and  _243
REMARK  100  A    between atoms: _243  and  _244
REMARK  101  A    between atoms: _247  and  _249
REMARK  102  A    between atoms: _249  and  _250
REMARK  103  A    between atoms: _249  and  _252
REMARK  104  A    between atoms: _252  and  _253
REMARK  105  A    between atoms: _256  and  _258
REMARK  106  A    between atoms: _258  and  _259
REMARK  107  A    between atoms: _261  and  _263
REMARK  108  A    between atoms: _263  and  _264
REMARK  109  A    between atoms: _263  and  _266
REMARK  110  A    between atoms: _266  and  _267
REMARK  111  A    between atoms: _267  and  _268
REMARK  112  A    between atoms: _268  and  _269
REMARK  113  A    between atoms: _278  and  _280
REMARK  114  A    between atoms: _280  and  _281
REMARK  115  A    between atoms: _280  and  _283
REMARK  116  A    between atoms: _283  and  _284
REMARK  117  A    between atoms: _289  and  _291
REMARK  118  A    between atoms: _291  and  _292
REMARK  119  A    between atoms: _291  and  _294
REMARK  120  A    between atoms: _294  and  _295
REMARK  121  A    between atoms: _295  and  _296
REMARK  122  A    between atoms: _296  and  _297
REMARK  123  A    between atoms: _306  and  _308
REMARK  124  A    between atoms: _308  and  _309
REMARK  125  A    between atoms: _308  and  _311
REMARK  126  A    between atoms: _311  and  _312
REMARK  127  A    between atoms: _315  and  _317
REMARK  128  A    between atoms: _317  and  _318
REMARK  129  A    between atoms: _317  and  _320
REMARK  130  A    between atoms: _320  and  _321
REMARK  131  A    between atoms: _324  and  _326
REMARK  132  A    between atoms: _326  and  _327
REMARK  133  A    between atoms: _326  and  _329
REMARK  134  A    between atoms: _329  and  _330
REMARK  135  A    between atoms: _333  and  _335
REMARK  136  A    between atoms: _335  and  _336
REMARK  137  A    between atoms: _335  and  _338
REMARK  138  A    between atoms: _338  and  _339
REMARK  139  A    between atoms: _342  and  _344
REMARK  140  A    between atoms: _344  and  _345
REMARK  141  A    between atoms: _347  and  _349
REMARK  142  A    between atoms: _349  and  _350
REMARK  143  A    between atoms: _353  and  _355
REMARK  144  A    between atoms: _355  and  _356
REMARK  145  A    between atoms: _355  and  _358
REMARK  146  A    between atoms: _358  and  _359
REMARK  147  A    between atoms: _362  and  _364
REMARK  148  A    between atoms: _364  and  _365
REMARK  149  A    between atoms: _364  and  _367
REMARK  150  A    between atoms: _367  and  _368
REMARK  151  A    between atoms: _371  and  _373
REMARK  152  A    between atoms: _373  and  _374
REMARK  153  A    between atoms: _373  and  _376
REMARK  154  A    between atoms: _376  and  _377
REMARK  155  A    between atoms: _380  and  _382
REMARK  156  A    between atoms: _382  and  _383
REMARK  157  A    between atoms: _382  and  _385
REMARK  158  A    between atoms: _388  and  _390
REMARK  159  A    between atoms: _390  and  _391
REMARK  160  A    between atoms: _390  and  _393
REMARK  161  A    between atoms: _393  and  _394
REMARK  162  A    between atoms: _394  and  _395
REMARK  163  A    between atoms: _397  and  _399
REMARK  164  A    between atoms: _399  and  _400
REMARK  165  A    between atoms: _399  and  _402
REMARK  166  A    between atoms: _402  and  _403
REMARK  167  A    between atoms: _406  and  _408
REMARK  168  A    between atoms: _408  and  _409
REMARK  169  A    between atoms: _411  and  _413
REMARK  170  A    between atoms: _413  and  _414
REMARK  171  A    between atoms: _416  and  _418
REMARK  172  A    between atoms: _418  and  _419
REMARK  173  A    between atoms: _418  and  _421
REMARK  174  A    between atoms: _421  and  _422
REMARK  175  A    between atoms: _425  and  _427
REMARK  176  A    between atoms: _427  and  _428
REMARK  177  A    between atoms: _430  and  _432
REMARK  178  A    between atoms: _432  and  _433
REMARK  179  A    between atoms: _435  and  _437
REMARK  180  A    between atoms: _437  and  _438
REMARK  181  A    between atoms: _437  and  _440
REMARK  182  A    between atoms: _440  and  _441
REMARK  183  A    between atoms: _447  and  _449
REMARK  184  A    between atoms: _449  and  _450
REMARK  185  A    between atoms: _449  and  _452
REMARK  186  A    between atoms: _452  and  _453
REMARK  187  A    between atoms: _456  and  _458
REMARK  188  A    between atoms: _458  and  _459
REMARK  189  A    between atoms: _458  and  _461
REMARK  190  A    between atoms: _464  and  _466
REMARK  191  A    between atoms: _466  and  _467
REMARK  192  A    between atoms: _466  and  _469
REMARK  193  A    between atoms: _469  and  _470
REMARK  194  A    between atoms: _473  and  _475
REMARK  195  A    between atoms: _475  and  _476
REMARK  196  A    between atoms: _475  and  _478
REMARK  197  A    between atoms: _478  and  _479
REMARK  198  A    between atoms: _483  and  _484
REMARK  199  A    between atoms: _489  and  _491
REMARK  200  A    between atoms: _491  and  _492
REMARK  201  A    between atoms: _495  and  _497
REMARK  202  A    between atoms: _497  and  _498
REMARK  203  A    between atoms: _497  and  _500
REMARK  204  A    between atoms: _500  and  _501
REMARK  205  A    between atoms: _506  and  _508
REMARK  206  A    between atoms: _508  and  _509
REMARK  207  A    between atoms: _508  and  _511
REMARK  208  A    between atoms: _511  and  _512
REMARK  209  A    between atoms: _515  and  _517
REMARK  210  A    between atoms: _517  and  _518
REMARK  211  A    between atoms: _517  and  _520
REMARK  212  A    between atoms: _520  and  _521
REMARK  213  A    between atoms: _524  and  _526
REMARK  214  A    between atoms: _526  and  _527
REMARK  215  A    between atoms: _529  and  _531
REMARK  216  A    between atoms: _531  and  _532
REMARK  217  A    between atoms: _531  and  _534
REMARK  218  A    between atoms: _534  and  _535
REMARK  219  A    between atoms: _535  and  _536
REMARK  220  A    between atoms: _536  and  _537
REMARK  221  A    between atoms: _546  and  _548
REMARK  222  A    between atoms: _548  and  _549
REMARK  223  A    between atoms: _548  and  _551
REMARK  224  A    between atoms: _551  and  _552
REMARK                            x       y       z     vdW  Elec       q    Type
REMARK                         _______ _______ _______ _____ _____    ______ ____
ROOT
ATOM      1  O   HOH     1      14.907  36.057  25.577  0.00  0.00    +0.000 OA
ENDROOT
TORSDOF 0
REMARK  Name = ../refined-set-2016/2nmz/2nmz_pocket.pdb
REMARK  224 active torsions:
REMARK  status: ('A' for Active; 'I' for Inactive)
REMARK    1  A    between atoms: _1  and  _3
REMARK    2  A    between atoms: _3  and  _4
REMARK    3  A    between atoms: _3  and  _6
REMARK    4  A    between atoms: _6  and  _7
REMARK    5  A    between atoms: _7  and  _8
REMARK    6  A    between atoms: _8  and  _9
REMARK    7  A    between atoms: _18  and  _20
REMARK    8  A    between atoms: _20  and  _21
REMARK    9  A    between atoms: _20  and  _23
REMARK   10  A    between atoms: _23  and  _24
REMARK   11  A    between atoms: _27  and  _29
REMARK   12  A    between atoms: _29  and  _30
REMARK   13  A    between atoms: _29  and  _32
REMARK   14  A    between atoms: _32  and  _33
REMARK   15  A    between atoms: _36  and  _38
REMARK   16  A    between atoms: _38  and  _39
REMARK   17  A    between atoms: _38  and  _41
REMARK   18  A    between atoms: _41  and  _42
REMARK   19  A    between atoms: _45  and  _47
REMARK   20  A    between atoms: _47  and  _48
REMARK   21  A    between atoms: _47  and  _50
REMARK   22  A    between atoms: _50  and  _51
REMARK   23  A    between atoms: _54  and  _56
REMARK   24  A    between atoms: _56  and  _57
REMARK   25  A    between atoms: _59  and  _61
REMARK   26  A    between atoms: _61  and  _62
REMARK   27  A    between atoms: _65  and  _67
REMARK   28  A    between atoms: _67  and  _68
REMARK   29  A    between atoms: _67  and  _70
REMARK   30  A    between atoms: _70  and  _71
REMARK   31  A    between atoms: _74  and  _76
REMARK   32  A    between atoms: _76  and  _77
REMARK   33  A    between atoms: _76  and  _79
REMARK   34  A    between atoms: _79  and  _80
REMARK   35  A    between atoms: _83  and  _85
REMARK   36  A    between atoms: _85  and  _86
REMARK   37  A    between atoms: _85  and  _88
REMARK   38  A    between atoms: _88  and  _89
REMARK   39  A    between atoms: _92  and  _94
REMARK   40  A    between atoms: _94  and  _95
REMARK   41  A    between atoms: _94  and  _97
REMARK   42  A    between atoms: _100  and  _102
REMARK   43  A    between atoms: _102  and  _103
REMARK   44  A    between atoms: _102  and  _105
REMARK   45  A    between atoms: _105  and  _106
REMARK   46  A    between atoms: _106  and  _107
REMARK   47  A    between atoms: _107  and  _108
REMARK   48  A    between atoms: _108  and  _109
REMARK   49  A    between atoms: _113  and  _115
REMARK   50  A    between atoms: _115  and  _116
REMARK   51  A    between atoms: _115  and  _118
REMARK   52  A    between atoms: _118  and  _119
REMARK   53  A    between atoms: _119  and  _120
REMARK   54  A    between atoms: _122  and  _124
REMARK   55  A    between atoms: _124  and  _125
REMARK   56  A    between atoms: _124  and  _127
REMARK   57  A    between atoms: _127  and  _128
REMARK   58  A    between atoms: _131  and  _133
REMARK   59  A    between atoms: _133  and  _134
REMARK   60  A    between atoms: _136  and  _138
REMARK   61  A    between atoms: _138  and  _139
REMARK   62  A    between atoms: _141  and  _143
REMARK   63  A    between atoms: _143  and  _144
REMARK   64  A    between atoms: _143  and  _146
REMARK   65  A    between atoms: _146  and  _147
REMARK   66  A    between atoms: _150  and  _152
REMARK   67  A    between atoms: _152  and  _153
REMARK   68  A    between atoms: _155  and  _157
REMARK   69  A    between atoms: _157  and  _158
REMARK   70  A    between atoms: _160  and  _162
REMARK   71  A    between atoms: _162  and  _163
REMARK   72  A    between atoms: _162  and  _165
REMARK   73  A    between atoms: _165  and  _166
REMARK   74  A    between atoms: _172  and  _174
REMARK   75  A    between atoms: _174  and  _175
REMARK   76  A    between atoms: _174  and  _177
REMARK   77  A    between atoms: _177  and  _178
REMARK   78  A    between atoms: _181  and  _183
REMARK   79  A    between atoms: _183  and  _184
REMARK   80  A    between atoms: _183  and  _186
REMARK   81  A    between atoms: _189  and  _191
REMARK   82  A    between atoms: _191  and  _192
REMARK   83  A    between atoms: _191  and  _194
REMARK   84  A    between atoms: _194  and  _195
REMARK   85  A    between atoms: _199  and  _200
REMARK   86  A    between atoms: _205  and  _207
REMARK   87  A    between atoms: _207  and  _208
REMARK   88  A    between atoms: _207  and  _210
REMARK   89  A    between atoms: _210  and  _211
REMARK   90  A    between atoms: _215  and  _216
REMARK   91  A    between atoms: _221  and  _223
REMARK   92  A    between atoms: _223  and  _224
REMARK   93  A    between atoms: _227  and  _229
REMARK   94  A    between atoms: _229  and  _230
REMARK   95  A    between atoms: _229  and  _232
REMARK   96  A    between atoms: _232  and  _233
REMARK   97  A    between atoms: _238  and  _240
REMARK   98  A    between atoms: _240  and  _241
REMARK   99  A    between atoms: _240  and  _243
REMARK  100  A    between atoms: _243  and  _244
REMARK  101  A    between atoms: _247  and  _249
REMARK  102  A    between atoms: _249  and  _250
REMARK  103  A    between atoms: _249  and  _252
REMARK  104  A    between atoms: _252  and  _253
REMARK  105  A    between atoms: _256  and  _258
REMARK  106  A    between atoms: _258  and  _259
REMARK  107  A    between atoms: _261  and  _263
REMARK  108  A    between atoms: _263  and  _264
REMARK  109  A    between atoms: _263  and  _266
REMARK  110  A    between atoms: _266  and  _267
REMARK  111  A    between atoms: _267  and  _268
REMARK  112  A    between atoms: _268  and  _269
REMARK  113  A    between atoms: _278  and  _280
REMARK  114  A    between atoms: _280  and  _281
REMARK  115  A    between atoms: _280  and  _283
REMARK  116  A    between atoms: _283  and  _284
REMARK  117  A    between atoms: _289  and  _291
REMARK  118  A    between atoms: _291  and  _292
REMARK  119  A    between atoms: _291  and  _294
REMARK  120  A    between atoms: _294  and  _295
REMARK  121  A    between atoms: _295  and  _296
REMARK  122  A    between atoms: _296  and  _297
REMARK  123  A    between atoms: _306  and  _308
REMARK  124  A    between atoms: _308  and  _309
REMARK  125  A    between atoms: _308  and  _311
REMARK  126  A    between atoms: _311  and  _312
REMARK  127  A    between atoms: _315  and  _317
REMARK  128  A    between atoms: _317  and  _318
REMARK  129  A    between atoms: _317  and  _320
REMARK  130  A    between atoms: _320  and  _321
REMARK  131  A    between atoms: _324  and  _326
REMARK  132  A    between atoms: _326  and  _327
REMARK  133  A    between atoms: _326  and  _329
REMARK  134  A    between atoms: _329  and  _330
REMARK  135  A    between atoms: _333  and  _335
REMARK  136  A    between atoms: _335  and  _336
REMARK  137  A    between atoms: _335  and  _338
REMARK  138  A    between atoms: _338  and  _339
REMARK  139  A    between atoms: _342  and  _344
REMARK  140  A    between atoms: _344  and  _345
REMARK  141  A    between atoms: _347  and  _349
REMARK  142  A    between atoms: _349  and  _350
REMARK  143  A    between atoms: _353  and  _355
REMARK  144  A    between atoms: _355  and  _356
REMARK  145  A    between atoms: _355  and  _358
REMARK  146  A    between atoms: _358  and  _359
REMARK  147  A    between atoms: _362  and  _364
REMARK  148  A    between atoms: _364  and  _365
REMARK  149  A    between atoms: _364  and  _367
REMARK  150  A    between atoms: _367  and  _368
REMARK  151  A    between atoms: _371  and  _373
REMARK  152  A    between atoms: _373  and  _374
REMARK  153  A    between atoms: _373  and  _376
REMARK  154  A    between atoms: _376  and  _377
REMARK  155  A    between atoms: _380  and  _382
REMARK  156  A    between atoms: _382  and  _383
REMARK  157  A    between atoms: _382  and  _385
REMARK  158  A    between atoms: _388  and  _390
REMARK  159  A    between atoms: _390  and  _391
REMARK  160  A    between atoms: _390  and  _393
REMARK  161  A    between atoms: _393  and  _394
REMARK  162  A    between atoms: _394  and  _395
REMARK  163  A    between atoms: _397  and  _399
REMARK  164  A    between atoms: _399  and  _400
REMARK  165  A    between atoms: _399  and  _402
REMARK  166  A    between atoms: _402  and  _403
REMARK  167  A    between atoms: _406  and  _408
REMARK  168  A    between atoms: _408  and  _409
REMARK  169  A    between atoms: _411  and  _413
REMARK  170  A    between atoms: _413  and  _414
REMARK  171  A    between atoms: _416  and  _418
REMARK  172  A    between atoms: _418  and  _419
REMARK  173  A    between atoms: _418  and  _421
REMARK  174  A    between atoms: _421  and  _422
REMARK  175  A    between atoms: _425  and  _427
REMARK  176  A    between atoms: _427  and  _428
REMARK  177  A    between atoms: _430  and  _432
REMARK  178  A    between atoms: _432  and  _433
REMARK  179  A    between atoms: _435  and  _437
REMARK  180  A    between atoms: _437  and  _438
REMARK  181  A    between atoms: _437  and  _440
REMARK  182  A    between atoms: _440  and  _441
REMARK  183  A    between atoms: _447  and  _449
REMARK  184  A    between atoms: _449  and  _450
REMARK  185  A    between atoms: _449  and  _452
REMARK  186  A    between atoms: _452  and  _453
REMARK  187  A    between atoms: _456  and  _458
REMARK  188  A    between atoms: _458  and  _459
REMARK  189  A    between atoms: _458  and  _461
REMARK  190  A    between atoms: _464  and  _466
REMARK  191  A    between atoms: _466  and  _467
REMARK  192  A    between atoms: _466  and  _469
REMARK  193  A    between atoms: _469  and  _470
REMARK  194  A    between atoms: _473  and  _475
REMARK  195  A    between atoms: _475  and  _476
REMARK  196  A    between atoms: _475  and  _478
REMARK  197  A    between atoms: _478  and  _479
REMARK  198  A    between atoms: _483  and  _484
REMARK  199  A    between atoms: _489  and  _491
REMARK  200  A    between atoms: _491  and  _492
REMARK  201  A    between atoms: _495  and  _497
REMARK  202  A    between atoms: _497  and  _498
REMARK  203  A    between atoms: _497  and  _500
REMARK  204  A    between atoms: _500  and  _501
REMARK  205  A    between atoms: _506  and  _508
REMARK  206  A    between atoms: _508  and  _509
REMARK  207  A    between atoms: _508  and  _511
REMARK  208  A    between atoms: _511  and  _512
REMARK  209  A    between atoms: _515  and  _517
REMARK  210  A    between atoms: _517  and  _518
REMARK  211  A    between atoms: _517  and  _520
REMARK  212  A    between atoms: _520  and  _521
REMARK  213  A    between atoms: _524  and  _526
REMARK  214  A    between atoms: _526  and  _527
REMARK  215  A    between atoms: _529  and  _531
REMARK  216  A    between atoms: _531  and  _532
REMARK  217  A    between atoms: _531  and  _534
REMARK  218  A    between atoms: _534  and  _535
REMARK  219  A    between atoms: _535  and  _536
REMARK  220  A    between atoms: _536  and  _537
REMARK  221  A    between atoms: _546  and  _548
REMARK  222  A    between atoms: _548  and  _549
REMARK  223  A    between atoms: _548  and  _551
REMARK  224  A    between atoms: _551  and  _552
REMARK                            x       y       z     vdW  Elec       q    Type
REMARK                         _______ _______ _______ _____ _____    ______ ____
ROOT
ATOM      1  O   HOH     1      25.557  36.820   9.064  0.00  0.00    +0.000 OA
ENDROOT
TORSDOF 0
REMARK  Name = ../refined-set-2016/2nmz/2nmz_pocket.pdb
REMARK  224 active torsions:
REMARK  status: ('A' for Active; 'I' for Inactive)
REMARK    1  A    between atoms: _1  and  _3
REMARK    2  A    between atoms: _3  and  _4
REMARK    3  A    between atoms: _3  and  _6
REMARK    4  A    between atoms: _6  and  _7
REMARK    5  A    between atoms: _7  and  _8
REMARK    6  A    between atoms: _8  and  _9
REMARK    7  A    between atoms: _18  and  _20
REMARK    8  A    between atoms: _20  and  _21
REMARK    9  A    between atoms: _20  and  _23
REMARK   10  A    between atoms: _23  and  _24
REMARK   11  A    between atoms: _27  and  _29
REMARK   12  A    between atoms: _29  and  _30
REMARK   13  A    between atoms: _29  and  _32
REMARK   14  A    between atoms: _32  and  _33
REMARK   15  A    between atoms: _36  and  _38
REMARK   16  A    between atoms: _38  and  _39
REMARK   17  A    between atoms: _38  and  _41
REMARK   18  A    between atoms: _41  and  _42
REMARK   19  A    between atoms: _45  and  _47
REMARK   20  A    between atoms: _47  and  _48
REMARK   21  A    between atoms: _47  and  _50
REMARK   22  A    between atoms: _50  and  _51
REMARK   23  A    between atoms: _54  and  _56
REMARK   24  A    between atoms: _56  and  _57
REMARK   25  A    between atoms: _59  and  _61
REMARK   26  A    between atoms: _61  and  _62
REMARK   27  A    between atoms: _65  and  _67
REMARK   28  A    between atoms: _67  and  _68
REMARK   29  A    between atoms: _67  and  _70
REMARK   30  A    between atoms: _70  and  _71
REMARK   31  A    between atoms: _74  and  _76
REMARK   32  A    between atoms: _76  and  _77
REMARK   33  A    between atoms: _76  and  _79
REMARK   34  A    between atoms: _79  and  _80
REMARK   35  A    between atoms: _83  and  _85
REMARK   36  A    between atoms: _85  and  _86
REMARK   37  A    between atoms: _85  and  _88
REMARK   38  A    between atoms: _88  and  _89
REMARK   39  A    between atoms: _92  and  _94
REMARK   40  A    between atoms: _94  and  _95
REMARK   41  A    between atoms: _94  and  _97
REMARK   42  A    between atoms: _100  and  _102
REMARK   43  A    between atoms: _102  and  _103
REMARK   44  A    between atoms: _102  and  _105
REMARK   45  A    between atoms: _105  and  _106
REMARK   46  A    between atoms: _106  and  _107
REMARK   47  A    between atoms: _107  and  _108
REMARK   48  A    between atoms: _108  and  _109
REMARK   49  A    between atoms: _113  and  _115
REMARK   50  A    between atoms: _115  and  _116
REMARK   51  A    between atoms: _115  and  _118
REMARK   52  A    between atoms: _118  and  _119
REMARK   53  A    between atoms: _119  and  _120
REMARK   54  A    between atoms: _122  and  _124
REMARK   55  A    between atoms: _124  and  _125
REMARK   56  A    between atoms: _124  and  _127
REMARK   57  A    between atoms: _127  and  _128
REMARK   58  A    between atoms: _131  and  _133
REMARK   59  A    between atoms: _133  and  _134
REMARK   60  A    between atoms: _136  and  _138
REMARK   61  A    between atoms: _138  and  _139
REMARK   62  A    between atoms: _141  and  _143
REMARK   63  A    between atoms: _143  and  _144
REMARK   64  A    between atoms: _143  and  _146
REMARK   65  A    between atoms: _146  and  _147
REMARK   66  A    between atoms: _150  and  _152
REMARK   67  A    between atoms: _152  and  _153
REMARK   68  A    between atoms: _155  and  _157
REMARK   69  A    between atoms: _157  and  _158
REMARK   70  A    between atoms: _160  and  _162
REMARK   71  A    between atoms: _162  and  _163
REMARK   72  A    between atoms: _162  and  _165
REMARK   73  A    between atoms: _165  and  _166
REMARK   74  A    between atoms: _172  and  _174
REMARK   75  A    between atoms: _174  and  _175
REMARK   76  A    between atoms: _174  and  _177
REMARK   77  A    between atoms: _177  and  _178
REMARK   78  A    between atoms: _181  and  _183
REMARK   79  A    between atoms: _183  and  _184
REMARK   80  A    between atoms: _183  and  _186
REMARK   81  A    between atoms: _189  and  _191
REMARK   82  A    between atoms: _191  and  _192
REMARK   83  A    between atoms: _191  and  _194
REMARK   84  A    between atoms: _194  and  _195
REMARK   85  A    between atoms: _199  and  _200
REMARK   86  A    between atoms: _205  and  _207
REMARK   87  A    between atoms: _207  and  _208
REMARK   88  A    between atoms: _207  and  _210
REMARK   89  A    between atoms: _210  and  _211
REMARK   90  A    between atoms: _215  and  _216
REMARK   91  A    between atoms: _221  and  _223
REMARK   92  A    between atoms: _223  and  _224
REMARK   93  A    between atoms: _227  and  _229
REMARK   94  A    between atoms: _229  and  _230
REMARK   95  A    between atoms: _229  and  _232
REMARK   96  A    between atoms: _232  and  _233
REMARK   97  A    between atoms: _238  and  _240
REMARK   98  A    between atoms: _240  and  _241
REMARK   99  A    between atoms: _240  and  _243
REMARK  100  A    between atoms: _243  and  _244
REMARK  101  A    between atoms: _247  and  _249
REMARK  102  A    between atoms: _249  and  _250
REMARK  103  A    between atoms: _249  and  _252
REMARK  104  A    between atoms: _252  and  _253
REMARK  105  A    between atoms: _256  and  _258
REMARK  106  A    between atoms: _258  and  _259
REMARK  107  A    between atoms: _261  and  _263
REMARK  108  A    between atoms: _263  and  _264
REMARK  109  A    between atoms: _263  and  _266
REMARK  110  A    between atoms: _266  and  _267
REMARK  111  A    between atoms: _267  and  _268
REMARK  112  A    between atoms: _268  and  _269
REMARK  113  A    between atoms: _278  and  _280
REMARK  114  A    between atoms: _280  and  _281
REMARK  115  A    between atoms: _280  and  _283
REMARK  116  A    between atoms: _283  and  _284
REMARK  117  A    between atoms: _289  and  _291
REMARK  118  A    between atoms: _291  and  _292
REMARK  119  A    between atoms: _291  and  _294
REMARK  120  A    between atoms: _294  and  _295
REMARK  121  A    between atoms: _295  and  _296
REMARK  122  A    between atoms: _296  and  _297
REMARK  123  A    between atoms: _306  and  _308
REMARK  124  A    between atoms: _308  and  _309
REMARK  125  A    between atoms: _308  and  _311
REMARK  126  A    between atoms: _311  and  _312
REMARK  127  A    between atoms: _315  and  _317
REMARK  128  A    between atoms: _317  and  _318
REMARK  129  A    between atoms: _317  and  _320
REMARK  130  A    between atoms: _320  and  _321
REMARK  131  A    between atoms: _324  and  _326
REMARK  132  A    between atoms: _326  and  _327
REMARK  133  A    between atoms: _326  and  _329
REMARK  134  A    between atoms: _329  and  _330
REMARK  135  A    between atoms: _333  and  _335
REMARK  136  A    between atoms: _335  and  _336
REMARK  137  A    between atoms: _335  and  _338
REMARK  138  A    between atoms: _338  and  _339
REMARK  139  A    between atoms: _342  and  _344
REMARK  140  A    between atoms: _344  and  _345
REMARK  141  A    between atoms: _347  and  _349
REMARK  142  A    between atoms: _349  and  _350
REMARK  143  A    between atoms: _353  and  _355
REMARK  144  A    between atoms: _355  and  _356
REMARK  145  A    between atoms: _355  and  _358
REMARK  146  A    between atoms: _358  and  _359
REMARK  147  A    between atoms: _362  and  _364
REMARK  148  A    between atoms: _364  and  _365
REMARK  149  A    between atoms: _364  and  _367
REMARK  150  A    between atoms: _367  and  _368
REMARK  151  A    between atoms: _371  and  _373
REMARK  152  A    between atoms: _373  and  _374
REMARK  153  A    between atoms: _373  and  _376
REMARK  154  A    between atoms: _376  and  _377
REMARK  155  A    between atoms: _380  and  _382
REMARK  156  A    between atoms: _382  and  _383
REMARK  157  A    between atoms: _382  and  _385
REMARK  158  A    between atoms: _388  and  _390
REMARK  159  A    between atoms: _390  and  _391
REMARK  160  A    between atoms: _390  and  _393
REMARK  161  A    between atoms: _393  and  _394
REMARK  162  A    between atoms: _394  and  _395
REMARK  163  A    between atoms: _397  and  _399
REMARK  164  A    between atoms: _399  and  _400
REMARK  165  A    between atoms: _399  and  _402
REMARK  166  A    between atoms: _402  and  _403
REMARK  167  A    between atoms: _406  and  _408
REMARK  168  A    between atoms: _408  and  _409
REMARK  169  A    between atoms: _411  and  _413
REMARK  170  A    between atoms: _413  and  _414
REMARK  171  A    between atoms: _416  and  _418
REMARK  172  A    between atoms: _418  and  _419
REMARK  173  A    between atoms: _418  and  _421
REMARK  174  A    between atoms: _421  and  _422
REMARK  175  A    between atoms: _425  and  _427
REMARK  176  A    between atoms: _427  and  _428
REMARK  177  A    between atoms: _430  and  _432
REMARK  178  A    between atoms: _432  and  _433
REMARK  179  A    between atoms: _435  and  _437
REMARK  180  A    between atoms: _437  and  _438
REMARK  181  A    between atoms: _437  and  _440
REMARK  182  A    between atoms: _440  and  _441
REMARK  183  A    between atoms: _447  and  _449
REMARK  184  A    between atoms: _449  and  _450
REMARK  185  A    between atoms: _449  and  _452
REMARK  186  A    between atoms: _452  and  _453
REMARK  187  A    between atoms: _456  and  _458
REMARK  188  A    between atoms: _458  and  _459
REMARK  189  A    between atoms: _458  and  _461
REMARK  190  A    between atoms: _464  and  _466
REMARK  191  A    between atoms: _466  and  _467
REMARK  192  A    between atoms: _466  and  _469
REMARK  193  A    between atoms: _469  and  _470
REMARK  194  A    between atoms: _473  and  _475
REMARK  195  A    between atoms: _475  and  _476
REMARK  196  A    between atoms: _475  and  _478
REMARK  197  A    between atoms: _478  and  _479
REMARK  198  A    between atoms: _483  and  _484
REMARK  199  A    between atoms: _489  and  _491
REMARK  200  A    between atoms: _491  and  _492
REMARK  201  A    between atoms: _495  and  _497
REMARK  202  A    between atoms: _497  and  _498
REMARK  203  A    between atoms: _497  and  _500
REMARK  204  A    between atoms: _500  and  _501
REMARK  205  A    between atoms: _506  and  _508
REMARK  206  A    between atoms: _508  and  _509
REMARK  207  A    between atoms: _508  and  _511
REMARK  208  A    between atoms: _511  and  _512
REMARK  209  A    between atoms: _515  and  _517
REMARK  210  A    between atoms: _517  and  _518
REMARK  211  A    between atoms: _517  and  _520
REMARK  212  A    between atoms: _520  and  _521
REMARK  213  A    between atoms: _524  and  _526
REMARK  214  A    between atoms: _526  and  _527
REMARK  215  A    between atoms: _529  and  _531
REMARK  216  A    between atoms: _531  and  _532
REMARK  217  A    between atoms: _531  and  _534
REMARK  218  A    between atoms: _534  and  _535
REMARK  219  A    between atoms: _535  and  _536
REMARK  220  A    between atoms: _536  and  _537
REMARK  221  A    between atoms: _546  and  _548
REMARK  222  A    between atoms: _548  and  _549
REMARK  223  A    between atoms: _548  and  _551
REMARK  224  A    between atoms: _551  and  _552
REMARK                            x       y       z     vdW  Elec       q    Type
REMARK                         _______ _______ _______ _____ _____    ______ ____
ROOT
ATOM      1  O   HOH     1      18.394  42.186  16.776  0.00  0.00    +0.000 OA
ENDROOT
TORSDOF 0
REMARK  Name = ../refined-set-2016/2nmz/2nmz_pocket.pdb
REMARK  224 active torsions:
REMARK  status: ('A' for Active; 'I' for Inactive)
REMARK    1  A    between atoms: _1  and  _3
REMARK    2  A    between atoms: _3  and  _4
REMARK    3  A    between atoms: _3  and  _6
REMARK    4  A    between atoms: _6  and  _7
REMARK    5  A    between atoms: _7  and  _8
REMARK    6  A    between atoms: _8  and  _9
REMARK    7  A    between atoms: _18  and  _20
REMARK    8  A    between atoms: _20  and  _21
REMARK    9  A    between atoms: _20  and  _23
REMARK   10  A    between atoms: _23  and  _24
REMARK   11  A    between atoms: _27  and  _29
REMARK   12  A    between atoms: _29  and  _30
REMARK   13  A    between atoms: _29  and  _32
REMARK   14  A    between atoms: _32  and  _33
REMARK   15  A    between atoms: _36  and  _38
REMARK   16  A    between atoms: _38  and  _39
REMARK   17  A    between atoms: _38  and  _41
REMARK   18  A    between atoms: _41  and  _42
REMARK   19  A    between atoms: _45  and  _47
REMARK   20  A    between atoms: _47  and  _48
REMARK   21  A    between atoms: _47  and  _50
REMARK   22  A    between atoms: _50  and  _51
REMARK   23  A    between atoms: _54  and  _56
REMARK   24  A    between atoms: _56  and  _57
REMARK   25  A    between atoms: _59  and  _61
REMARK   26  A    between atoms: _61  and  _62
REMARK   27  A    between atoms: _65  and  _67
REMARK   28  A    between atoms: _67  and  _68
REMARK   29  A    between atoms: _67  and  _70
REMARK   30  A    between atoms: _70  and  _71
REMARK   31  A    between atoms: _74  and  _76
REMARK   32  A    between atoms: _76  and  _77
REMARK   33  A    between atoms: _76  and  _79
REMARK   34  A    between atoms: _79  and  _80
REMARK   35  A    between atoms: _83  and  _85
REMARK   36  A    between atoms: _85  and  _86
REMARK   37  A    between atoms: _85  and  _88
REMARK   38  A    between atoms: _88  and  _89
REMARK   39  A    between atoms: _92  and  _94
REMARK   40  A    between atoms: _94  and  _95
REMARK   41  A    between atoms: _94  and  _97
REMARK   42  A    between atoms: _100  and  _102
REMARK   43  A    between atoms: _102  and  _103
REMARK   44  A    between atoms: _102  and  _105
REMARK   45  A    between atoms: _105  and  _106
REMARK   46  A    between atoms: _106  and  _107
REMARK   47  A    between atoms: _107  and  _108
REMARK   48  A    between atoms: _108  and  _109
REMARK   49  A    between atoms: _113  and  _115
REMARK   50  A    between atoms: _115  and  _116
REMARK   51  A    between atoms: _115  and  _118
REMARK   52  A    between atoms: _118  and  _119
REMARK   53  A    between atoms: _119  and  _120
REMARK   54  A    between atoms: _122  and  _124
REMARK   55  A    between atoms: _124  and  _125
REMARK   56  A    between atoms: _124  and  _127
REMARK   57  A    between atoms: _127  and  _128
REMARK   58  A    between atoms: _131  and  _133
REMARK   59  A    between atoms: _133  and  _134
REMARK   60  A    between atoms: _136  and  _138
REMARK   61  A    between atoms: _138  and  _139
REMARK   62  A    between atoms: _141  and  _143
REMARK   63  A    between atoms: _143  and  _144
REMARK   64  A    between atoms: _143  and  _146
REMARK   65  A    between atoms: _146  and  _147
REMARK   66  A    between atoms: _150  and  _152
REMARK   67  A    between atoms: _152  and  _153
REMARK   68  A    between atoms: _155  and  _157
REMARK   69  A    between atoms: _157  and  _158
REMARK   70  A    between atoms: _160  and  _162
REMARK   71  A    between atoms: _162  and  _163
REMARK   72  A    between atoms: _162  and  _165
REMARK   73  A    between atoms: _165  and  _166
REMARK   74  A    between atoms: _172  and  _174
REMARK   75  A    between atoms: _174  and  _175
REMARK   76  A    between atoms: _174  and  _177
REMARK   77  A    between atoms: _177  and  _178
REMARK   78  A    between atoms: _181  and  _183
REMARK   79  A    between atoms: _183  and  _184
REMARK   80  A    between atoms: _183  and  _186
REMARK   81  A    between atoms: _189  and  _191
REMARK   82  A    between atoms: _191  and  _192
REMARK   83  A    between atoms: _191  and  _194
REMARK   84  A    between atoms: _194  and  _195
REMARK   85  A    between atoms: _199  and  _200
REMARK   86  A    between atoms: _205  and  _207
REMARK   87  A    between atoms: _207  and  _208
REMARK   88  A    between atoms: _207  and  _210
REMARK   89  A    between atoms: _210  and  _211
REMARK   90  A    between atoms: _215  and  _216
REMARK   91  A    between atoms: _221  and  _223
REMARK   92  A    between atoms: _223  and  _224
REMARK   93  A    between atoms: _227  and  _229
REMARK   94  A    between atoms: _229  and  _230
REMARK   95  A    between atoms: _229  and  _232
REMARK   96  A    between atoms: _232  and  _233
REMARK   97  A    between atoms: _238  and  _240
REMARK   98  A    between atoms: _240  and  _241
REMARK   99  A    between atoms: _240  and  _243
REMARK  100  A    between atoms: _243  and  _244
REMARK  101  A    between atoms: _247  and  _249
REMARK  102  A    between atoms: _249  and  _250
REMARK  103  A    between atoms: _249  and  _252
REMARK  104  A    between atoms: _252  and  _253
REMARK  105  A    between atoms: _256  and  _258
REMARK  106  A    between atoms: _258  and  _259
REMARK  107  A    between atoms: _261  and  _263
REMARK  108  A    between atoms: _263  and  _264
REMARK  109  A    between atoms: _263  and  _266
REMARK  110  A    between atoms: _266  and  _267
REMARK  111  A    between atoms: _267  and  _268
REMARK  112  A    between atoms: _268  and  _269
REMARK  113  A    between atoms: _278  and  _280
REMARK  114  A    between atoms: _280  and  _281
REMARK  115  A    between atoms: _280  and  _283
REMARK  116  A    between atoms: _283  and  _284
REMARK  117  A    between atoms: _289  and  _291
REMARK  118  A    between atoms: _291  and  _292
REMARK  119  A    between atoms: _291  and  _294
REMARK  120  A    between atoms: _294  and  _295
REMARK  121  A    between atoms: _295  and  _296
REMARK  122  A    between atoms: _296  and  _297
REMARK  123  A    between atoms: _306  and  _308
REMARK  124  A    between atoms: _308  and  _309
REMARK  125  A    between atoms: _308  and  _311
REMARK  126  A    between atoms: _311  and  _312
REMARK  127  A    between atoms: _315  and  _317
REMARK  128  A    between atoms: _317  and  _318
REMARK  129  A    between atoms: _317  and  _320
REMARK  130  A    between atoms: _320  and  _321
REMARK  131  A    between atoms: _324  and  _326
REMARK  132  A    between atoms: _326  and  _327
REMARK  133  A    between atoms: _326  and  _329
REMARK  134  A    between atoms: _329  and  _330
REMARK  135  A    between atoms: _333  and  _335
REMARK  136  A    between atoms: _335  and  _336
REMARK  137  A    between atoms: _335  and  _338
REMARK  138  A    between atoms: _338  and  _339
REMARK  139  A    between atoms: _342  and  _344
REMARK  140  A    between atoms: _344  and  _345
REMARK  141  A    between atoms: _347  and  _349
REMARK  142  A    between atoms: _349  and  _350
REMARK  143  A    between atoms: _353  and  _355
REMARK  144  A    between atoms: _355  and  _356
REMARK  145  A    between atoms: _355  and  _358
REMARK  146  A    between atoms: _358  and  _359
REMARK  147  A    between atoms: _362  and  _364
REMARK  148  A    between atoms: _364  and  _365
REMARK  149  A    between atoms: _364  and  _367
REMARK  150  A    between atoms: _367  and  _368
REMARK  151  A    between atoms: _371  and  _373
REMARK  152  A    between atoms: _373  and  _374
REMARK  153  A    between atoms: _373  and  _376
REMARK  154  A    between atoms: _376  and  _377
REMARK  155  A    between atoms: _380  and  _382
REMARK  156  A    between atoms: _382  and  _383
REMARK  157  A    between atoms: _382  and  _385
REMARK  158  A    between atoms: _388  and  _390
REMARK  159  A    between atoms: _390  and  _391
REMARK  160  A    between atoms: _390  and  _393
REMARK  161  A    between atoms: _393  and  _394
REMARK  162  A    between atoms: _394  and  _395
REMARK  163  A    between atoms: _397  and  _399
REMARK  164  A    between atoms: _399  and  _400
REMARK  165  A    between atoms: _399  and  _402
REMARK  166  A    between atoms: _402  and  _403
REMARK  167  A    between atoms: _406  and  _408
REMARK  168  A    between atoms: _408  and  _409
REMARK  169  A    between atoms: _411  and  _413
REMARK  170  A    between atoms: _413  and  _414
REMARK  171  A    between atoms: _416  and  _418
REMARK  172  A    between atoms: _418  and  _419
REMARK  173  A    between atoms: _418  and  _421
REMARK  174  A    between atoms: _421  and  _422
REMARK  175  A    between atoms: _425  and  _427
REMARK  176  A    between atoms: _427  and  _428
REMARK  177  A    between atoms: _430  and  _432
REMARK  178  A    between atoms: _432  and  _433
REMARK  179  A    between atoms: _435  and  _437
REMARK  180  A    between atoms: _437  and  _438
REMARK  181  A    between atoms: _437  and  _440
REMARK  182  A    between atoms: _440  and  _441
REMARK  183  A    between atoms: _447  and  _449
REMARK  184  A    between atoms: _449  and  _450
REMARK  185  A    between atoms: _449  and  _452
REMARK  186  A    between atoms: _452  and  _453
REMARK  187  A    between atoms: _456  and  _458
REMARK  188  A    between atoms: _458  and  _459
REMARK  189  A    between atoms: _458  and  _461
REMARK  190  A    between atoms: _464  and  _466
REMARK  191  A    between atoms: _466  and  _467
REMARK  192  A    between atoms: _466  and  _469
REMARK  193  A    between atoms: _469  and  _470
REMARK  194  A    between atoms: _473  and  _475
REMARK  195  A    between atoms: _475  and  _476
REMARK  196  A    between atoms: _475  and  _478
REMARK  197  A    between atoms: _478  and  _479
REMARK  198  A    between atoms: _483  and  _484
REMARK  199  A    between atoms: _489  and  _491
REMARK  200  A    between atoms: _491  and  _492
REMARK  201  A    between atoms: _495  and  _497
REMARK  202  A    between atoms: _497  and  _498
REMARK  203  A    between atoms: _497  and  _500
REMARK  204  A    between atoms: _500  and  _501
REMARK  205  A    between atoms: _506  and  _508
REMARK  206  A    between atoms: _508  and  _509
REMARK  207  A    between atoms: _508  and  _511
REMARK  208  A    between atoms: _511  and  _512
REMARK  209  A    between atoms: _515  and  _517
REMARK  210  A    between atoms: _517  and  _518
REMARK  211  A    between atoms: _517  and  _520
REMARK  212  A    between atoms: _520  and  _521
REMARK  213  A    between atoms: _524  and  _526
REMARK  214  A    between atoms: _526  and  _527
REMARK  215  A    between atoms: _529  and  _531
REMARK  216  A    between atoms: _531  and  _532
REMARK  217  A    between atoms: _531  and  _534
REMARK  218  A    between atoms: _534  and  _535
REMARK  219  A    between atoms: _535  and  _536
REMARK  220  A    between atoms: _536  and  _537
REMARK  221  A    between atoms: _546  and  _548
REMARK  222  A    between atoms: _548  and  _549
REMARK  223  A    between atoms: _548  and  _551
REMARK  224  A    between atoms: _551  and  _552
REMARK                            x       y       z     vdW  Elec       q    Type
REMARK                         _______ _______ _______ _____ _____    ______ ____
ROOT
ATOM      1  O   HOH     1      21.614  39.066  12.761  0.00  0.00    +0.000 OA
ENDROOT
TORSDOF 0
REMARK  Name = ../refined-set-2016/2nmz/2nmz_pocket.pdb
REMARK  224 active torsions:
REMARK  status: ('A' for Active; 'I' for Inactive)
REMARK    1  A    between atoms: _1  and  _3
REMARK    2  A    between atoms: _3  and  _4
REMARK    3  A    between atoms: _3  and  _6
REMARK    4  A    between atoms: _6  and  _7
REMARK    5  A    between atoms: _7  and  _8
REMARK    6  A    between atoms: _8  and  _9
REMARK    7  A    between atoms: _18  and  _20
REMARK    8  A    between atoms: _20  and  _21
REMARK    9  A    between atoms: _20  and  _23
REMARK   10  A    between atoms: _23  and  _24
REMARK   11  A    between atoms: _27  and  _29
REMARK   12  A    between atoms: _29  and  _30
REMARK   13  A    between atoms: _29  and  _32
REMARK   14  A    between atoms: _32  and  _33
REMARK   15  A    between atoms: _36  and  _38
REMARK   16  A    between atoms: _38  and  _39
REMARK   17  A    between atoms: _38  and  _41
REMARK   18  A    between atoms: _41  and  _42
REMARK   19  A    between atoms: _45  and  _47
REMARK   20  A    between atoms: _47  and  _48
REMARK   21  A    between atoms: _47  and  _50
REMARK   22  A    between atoms: _50  and  _51
REMARK   23  A    between atoms: _54  and  _56
REMARK   24  A    between atoms: _56  and  _57
REMARK   25  A    between atoms: _59  and  _61
REMARK   26  A    between atoms: _61  and  _62
REMARK   27  A    between atoms: _65  and  _67
REMARK   28  A    between atoms: _67  and  _68
REMARK   29  A    between atoms: _67  and  _70
REMARK   30  A    between atoms: _70  and  _71
REMARK   31  A    between atoms: _74  and  _76
REMARK   32  A    between atoms: _76  and  _77
REMARK   33  A    between atoms: _76  and  _79
REMARK   34  A    between atoms: _79  and  _80
REMARK   35  A    between atoms: _83  and  _85
REMARK   36  A    between atoms: _85  and  _86
REMARK   37  A    between atoms: _85  and  _88
REMARK   38  A    between atoms: _88  and  _89
REMARK   39  A    between atoms: _92  and  _94
REMARK   40  A    between atoms: _94  and  _95
REMARK   41  A    between atoms: _94  and  _97
REMARK   42  A    between atoms: _100  and  _102
REMARK   43  A    between atoms: _102  and  _103
REMARK   44  A    between atoms: _102  and  _105
REMARK   45  A    between atoms: _105  and  _106
REMARK   46  A    between atoms: _106  and  _107
REMARK   47  A    between atoms: _107  and  _108
REMARK   48  A    between atoms: _108  and  _109
REMARK   49  A    between atoms: _113  and  _115
REMARK   50  A    between atoms: _115  and  _116
REMARK   51  A    between atoms: _115  and  _118
REMARK   52  A    between atoms: _118  and  _119
REMARK   53  A    between atoms: _119  and  _120
REMARK   54  A    between atoms: _122  and  _124
REMARK   55  A    between atoms: _124  and  _125
REMARK   56  A    between atoms: _124  and  _127
REMARK   57  A    between atoms: _127  and  _128
REMARK   58  A    between atoms: _131  and  _133
REMARK   59  A    between atoms: _133  and  _134
REMARK   60  A    between atoms: _136  and  _138
REMARK   61  A    between atoms: _138  and  _139
REMARK   62  A    between atoms: _141  and  _143
REMARK   63  A    between atoms: _143  and  _144
REMARK   64  A    between atoms: _143  and  _146
REMARK   65  A    between atoms: _146  and  _147
REMARK   66  A    between atoms: _150  and  _152
REMARK   67  A    between atoms: _152  and  _153
REMARK   68  A    between atoms: _155  and  _157
REMARK   69  A    between atoms: _157  and  _158
REMARK   70  A    between atoms: _160  and  _162
REMARK   71  A    between atoms: _162  and  _163
REMARK   72  A    between atoms: _162  and  _165
REMARK   73  A    between atoms: _165  and  _166
REMARK   74  A    between atoms: _172  and  _174
REMARK   75  A    between atoms: _174  and  _175
REMARK   76  A    between atoms: _174  and  _177
REMARK   77  A    between atoms: _177  and  _178
REMARK   78  A    between atoms: _181  and  _183
REMARK   79  A    between atoms: _183  and  _184
REMARK   80  A    between atoms: _183  and  _186
REMARK   81  A    between atoms: _189  and  _191
REMARK   82  A    between atoms: _191  and  _192
REMARK   83  A    between atoms: _191  and  _194
REMARK   84  A    between atoms: _194  and  _195
REMARK   85  A    between atoms: _199  and  _200
REMARK   86  A    between atoms: _205  and  _207
REMARK   87  A    between atoms: _207  and  _208
REMARK   88  A    between atoms: _207  and  _210
REMARK   89  A    between atoms: _210  and  _211
REMARK   90  A    between atoms: _215  and  _216
REMARK   91  A    between atoms: _221  and  _223
REMARK   92  A    between atoms: _223  and  _224
REMARK   93  A    between atoms: _227  and  _229
REMARK   94  A    between atoms: _229  and  _230
REMARK   95  A    between atoms: _229  and  _232
REMARK   96  A    between atoms: _232  and  _233
REMARK   97  A    between atoms: _238  and  _240
REMARK   98  A    between atoms: _240  and  _241
REMARK   99  A    between atoms: _240  and  _243
REMARK  100  A    between atoms: _243  and  _244
REMARK  101  A    between atoms: _247  and  _249
REMARK  102  A    between atoms: _249  and  _250
REMARK  103  A    between atoms: _249  and  _252
REMARK  104  A    between atoms: _252  and  _253
REMARK  105  A    between atoms: _256  and  _258
REMARK  106  A    between atoms: _258  and  _259
REMARK  107  A    between atoms: _261  and  _263
REMARK  108  A    between atoms: _263  and  _264
REMARK  109  A    between atoms: _263  and  _266
REMARK  110  A    between atoms: _266  and  _267
REMARK  111  A    between atoms: _267  and  _268
REMARK  112  A    between atoms: _268  and  _269
REMARK  113  A    between atoms: _278  and  _280
REMARK  114  A    between atoms: _280  and  _281
REMARK  115  A    between atoms: _280  and  _283
REMARK  116  A    between atoms: _283  and  _284
REMARK  117  A    between atoms: _289  and  _291
REMARK  118  A    between atoms: _291  and  _292
REMARK  119  A    between atoms: _291  and  _294
REMARK  120  A    between atoms: _294  and  _295
REMARK  121  A    between atoms: _295  and  _296
REMARK  122  A    between atoms: _296  and  _297
REMARK  123  A    between atoms: _306  and  _308
REMARK  124  A    between atoms: _308  and  _309
REMARK  125  A    between atoms: _308  and  _311
REMARK  126  A    between atoms: _311  and  _312
REMARK  127  A    between atoms: _315  and  _317
REMARK  128  A    between atoms: _317  and  _318
REMARK  129  A    between atoms: _317  and  _320
REMARK  130  A    between atoms: _320  and  _321
REMARK  131  A    between atoms: _324  and  _326
REMARK  132  A    between atoms: _326  and  _327
REMARK  133  A    between atoms: _326  and  _329
REMARK  134  A    between atoms: _329  and  _330
REMARK  135  A    between atoms: _333  and  _335
REMARK  136  A    between atoms: _335  and  _336
REMARK  137  A    between atoms: _335  and  _338
REMARK  138  A    between atoms: _338  and  _339
REMARK  139  A    between atoms: _342  and  _344
REMARK  140  A    between atoms: _344  and  _345
REMARK  141  A    between atoms: _347  and  _349
REMARK  142  A    between atoms: _349  and  _350
REMARK  143  A    between atoms: _353  and  _355
REMARK  144  A    between atoms: _355  and  _356
REMARK  145  A    between atoms: _355  and  _358
REMARK  146  A    between atoms: _358  and  _359
REMARK  147  A    between atoms: _362  and  _364
REMARK  148  A    between atoms: _364  and  _365
REMARK  149  A    between atoms: _364  and  _367
REMARK  150  A    between atoms: _367  and  _368
REMARK  151  A    between atoms: _371  and  _373
REMARK  152  A    between atoms: _373  and  _374
REMARK  153  A    between atoms: _373  and  _376
REMARK  154  A    between atoms: _376  and  _377
REMARK  155  A    between atoms: _380  and  _382
REMARK  156  A    between atoms: _382  and  _383
REMARK  157  A    between atoms: _382  and  _385
REMARK  158  A    between atoms: _388  and  _390
REMARK  159  A    between atoms: _390  and  _391
REMARK  160  A    between atoms: _390  and  _393
REMARK  161  A    between atoms: _393  and  _394
REMARK  162  A    between atoms: _394  and  _395
REMARK  163  A    between atoms: _397  and  _399
REMARK  164  A    between atoms: _399  and  _400
REMARK  165  A    between atoms: _399  and  _402
REMARK  166  A    between atoms: _402  and  _403
REMARK  167  A    between atoms: _406  and  _408
REMARK  168  A    between atoms: _408  and  _409
REMARK  169  A    between atoms: _411  and  _413
REMARK  170  A    between atoms: _413  and  _414
REMARK  171  A    between atoms: _416  and  _418
REMARK  172  A    between atoms: _418  and  _419
REMARK  173  A    between atoms: _418  and  _421
REMARK  174  A    between atoms: _421  and  _422
REMARK  175  A    between atoms: _425  and  _427
REMARK  176  A    between atoms: _427  and  _428
REMARK  177  A    between atoms: _430  and  _432
REMARK  178  A    between atoms: _432  and  _433
REMARK  179  A    between atoms: _435  and  _437
REMARK  180  A    between atoms: _437  and  _438
REMARK  181  A    between atoms: _437  and  _440
REMARK  182  A    between atoms: _440  and  _441
REMARK  183  A    between atoms: _447  and  _449
REMARK  184  A    between atoms: _449  and  _450
REMARK  185  A    between atoms: _449  and  _452
REMARK  186  A    between atoms: _452  and  _453
REMARK  187  A    between atoms: _456  and  _458
REMARK  188  A    between atoms: _458  and  _459
REMARK  189  A    between atoms: _458  and  _461
REMARK  190  A    between atoms: _464  and  _466
REMARK  191  A    between atoms: _466  and  _467
REMARK  192  A    between atoms: _466  and  _469
REMARK  193  A    between atoms: _469  and  _470
REMARK  194  A    between atoms: _473  and  _475
REMARK  195  A    between atoms: _475  and  _476
REMARK  196  A    between atoms: _475  and  _478
REMARK  197  A    between atoms: _478  and  _479
REMARK  198  A    between atoms: _483  and  _484
REMARK  199  A    between atoms: _489  and  _491
REMARK  200  A    between atoms: _491  and  _492
REMARK  201  A    between atoms: _495  and  _497
REMARK  202  A    between atoms: _497  and  _498
REMARK  203  A    between atoms: _497  and  _500
REMARK  204  A    between atoms: _500  and  _501
REMARK  205  A    between atoms: _506  and  _508
REMARK  206  A    between atoms: _508  and  _509
REMARK  207  A    between atoms: _508  and  _511
REMARK  208  A    between atoms: _511  and  _512
REMARK  209  A    between atoms: _515  and  _517
REMARK  210  A    between atoms: _517  and  _518
REMARK  211  A    between atoms: _517  and  _520
REMARK  212  A    between atoms: _520  and  _521
REMARK  213  A    between atoms: _524  and  _526
REMARK  214  A    between atoms: _526  and  _527
REMARK  215  A    between atoms: _529  and  _531
REMARK  216  A    between atoms: _531  and  _532
REMARK  217  A    between atoms: _531  and  _534
REMARK  218  A    between atoms: _534  and  _535
REMARK  219  A    between atoms: _535  and  _536
REMARK  220  A    between atoms: _536  and  _537
REMARK  221  A    between atoms: _546  and  _548
REMARK  222  A    between atoms: _548  and  _549
REMARK  223  A    between atoms: _548  and  _551
REMARK  224  A    between atoms: _551  and  _552
REMARK                            x       y       z     vdW  Elec       q    Type
REMARK                         _______ _______ _______ _____ _____    ______ ____
ROOT
ATOM      1  O   HOH     1      20.230  21.816  15.788  0.00  0.00    +0.000 OA
ENDROOT
TORSDOF 0
REMARK  Name = ../refined-set-2016/2nmz/2nmz_pocket.pdb
REMARK  224 active torsions:
REMARK  status: ('A' for Active; 'I' for Inactive)
REMARK    1  A    between atoms: _1  and  _3
REMARK    2  A    between atoms: _3  and  _4
REMARK    3  A    between atoms: _3  and  _6
REMARK    4  A    between atoms: _6  and  _7
REMARK    5  A    between atoms: _7  and  _8
REMARK    6  A    between atoms: _8  and  _9
REMARK    7  A    between atoms: _18  and  _20
REMARK    8  A    between atoms: _20  and  _21
REMARK    9  A    between atoms: _20  and  _23
REMARK   10  A    between atoms: _23  and  _24
REMARK   11  A    between atoms: _27  and  _29
REMARK   12  A    between atoms: _29  and  _30
REMARK   13  A    between atoms: _29  and  _32
REMARK   14  A    between atoms: _32  and  _33
REMARK   15  A    between atoms: _36  and  _38
REMARK   16  A    between atoms: _38  and  _39
REMARK   17  A    between atoms: _38  and  _41
REMARK   18  A    between atoms: _41  and  _42
REMARK   19  A    between atoms: _45  and  _47
REMARK   20  A    between atoms: _47  and  _48
REMARK   21  A    between atoms: _47  and  _50
REMARK   22  A    between atoms: _50  and  _51
REMARK   23  A    between atoms: _54  and  _56
REMARK   24  A    between atoms: _56  and  _57
REMARK   25  A    between atoms: _59  and  _61
REMARK   26  A    between atoms: _61  and  _62
REMARK   27  A    between atoms: _65  and  _67
REMARK   28  A    between atoms: _67  and  _68
REMARK   29  A    between atoms: _67  and  _70
REMARK   30  A    between atoms: _70  and  _71
REMARK   31  A    between atoms: _74  and  _76
REMARK   32  A    between atoms: _76  and  _77
REMARK   33  A    between atoms: _76  and  _79
REMARK   34  A    between atoms: _79  and  _80
REMARK   35  A    between atoms: _83  and  _85
REMARK   36  A    between atoms: _85  and  _86
REMARK   37  A    between atoms: _85  and  _88
REMARK   38  A    between atoms: _88  and  _89
REMARK   39  A    between atoms: _92  and  _94
REMARK   40  A    between atoms: _94  and  _95
REMARK   41  A    between atoms: _94  and  _97
REMARK   42  A    between atoms: _100  and  _102
REMARK   43  A    between atoms: _102  and  _103
REMARK   44  A    between atoms: _102  and  _105
REMARK   45  A    between atoms: _105  and  _106
REMARK   46  A    between atoms: _106  and  _107
REMARK   47  A    between atoms: _107  and  _108
REMARK   48  A    between atoms: _108  and  _109
REMARK   49  A    between atoms: _113  and  _115
REMARK   50  A    between atoms: _115  and  _116
REMARK   51  A    between atoms: _115  and  _118
REMARK   52  A    between atoms: _118  and  _119
REMARK   53  A    between atoms: _119  and  _120
REMARK   54  A    between atoms: _122  and  _124
REMARK   55  A    between atoms: _124  and  _125
REMARK   56  A    between atoms: _124  and  _127
REMARK   57  A    between atoms: _127  and  _128
REMARK   58  A    between atoms: _131  and  _133
REMARK   59  A    between atoms: _133  and  _134
REMARK   60  A    between atoms: _136  and  _138
REMARK   61  A    between atoms: _138  and  _139
REMARK   62  A    between atoms: _141  and  _143
REMARK   63  A    between atoms: _143  and  _144
REMARK   64  A    between atoms: _143  and  _146
REMARK   65  A    between atoms: _146  and  _147
REMARK   66  A    between atoms: _150  and  _152
REMARK   67  A    between atoms: _152  and  _153
REMARK   68  A    between atoms: _155  and  _157
REMARK   69  A    between atoms: _157  and  _158
REMARK   70  A    between atoms: _160  and  _162
REMARK   71  A    between atoms: _162  and  _163
REMARK   72  A    between atoms: _162  and  _165
REMARK   73  A    between atoms: _165  and  _166
REMARK   74  A    between atoms: _172  and  _174
REMARK   75  A    between atoms: _174  and  _175
REMARK   76  A    between atoms: _174  and  _177
REMARK   77  A    between atoms: _177  and  _178
REMARK   78  A    between atoms: _181  and  _183
REMARK   79  A    between atoms: _183  and  _184
REMARK   80  A    between atoms: _183  and  _186
REMARK   81  A    between atoms: _189  and  _191
REMARK   82  A    between atoms: _191  and  _192
REMARK   83  A    between atoms: _191  and  _194
REMARK   84  A    between atoms: _194  and  _195
REMARK   85  A    between atoms: _199  and  _200
REMARK   86  A    between atoms: _205  and  _207
REMARK   87  A    between atoms: _207  and  _208
REMARK   88  A    between atoms: _207  and  _210
REMARK   89  A    between atoms: _210  and  _211
REMARK   90  A    between atoms: _215  and  _216
REMARK   91  A    between atoms: _221  and  _223
REMARK   92  A    between atoms: _223  and  _224
REMARK   93  A    between atoms: _227  and  _229
REMARK   94  A    between atoms: _229  and  _230
REMARK   95  A    between atoms: _229  and  _232
REMARK   96  A    between atoms: _232  and  _233
REMARK   97  A    between atoms: _238  and  _240
REMARK   98  A    between atoms: _240  and  _241
REMARK   99  A    between atoms: _240  and  _243
REMARK  100  A    between atoms: _243  and  _244
REMARK  101  A    between atoms: _247  and  _249
REMARK  102  A    between atoms: _249  and  _250
REMARK  103  A    between atoms: _249  and  _252
REMARK  104  A    between atoms: _252  and  _253
REMARK  105  A    between atoms: _256  and  _258
REMARK  106  A    between atoms: _258  and  _259
REMARK  107  A    between atoms: _261  and  _263
REMARK  108  A    between atoms: _263  and  _264
REMARK  109  A    between atoms: _263  and  _266
REMARK  110  A    between atoms: _266  and  _267
REMARK  111  A    between atoms: _267  and  _268
REMARK  112  A    between atoms: _268  and  _269
REMARK  113  A    between atoms: _278  and  _280
REMARK  114  A    between atoms: _280  and  _281
REMARK  115  A    between atoms: _280  and  _283
REMARK  116  A    between atoms: _283  and  _284
REMARK  117  A    between atoms: _289  and  _291
REMARK  118  A    between atoms: _291  and  _292
REMARK  119  A    between atoms: _291  and  _294
REMARK  120  A    between atoms: _294  and  _295
REMARK  121  A    between atoms: _295  and  _296
REMARK  122  A    between atoms: _296  and  _297
REMARK  123  A    between atoms: _306  and  _308
REMARK  124  A    between atoms: _308  and  _309
REMARK  125  A    between atoms: _308  and  _311
REMARK  126  A    between atoms: _311  and  _312
REMARK  127  A    between atoms: _315  and  _317
REMARK  128  A    between atoms: _317  and  _318
REMARK  129  A    between atoms: _317  and  _320
REMARK  130  A    between atoms: _320  and  _321
REMARK  131  A    between atoms: _324  and  _326
REMARK  132  A    between atoms: _326  and  _327
REMARK  133  A    between atoms: _326  and  _329
REMARK  134  A    between atoms: _329  and  _330
REMARK  135  A    between atoms: _333  and  _335
REMARK  136  A    between atoms: _335  and  _336
REMARK  137  A    between atoms: _335  and  _338
REMARK  138  A    between atoms: _338  and  _339
REMARK  139  A    between atoms: _342  and  _344
REMARK  140  A    between atoms: _344  and  _345
REMARK  141  A    between atoms: _347  and  _349
REMARK  142  A    between atoms: _349  and  _350
REMARK  143  A    between atoms: _353  and  _355
REMARK  144  A    between atoms: _355  and  _356
REMARK  145  A    between atoms: _355  and  _358
REMARK  146  A    between atoms: _358  and  _359
REMARK  147  A    between atoms: _362  and  _364
REMARK  148  A    between atoms: _364  and  _365
REMARK  149  A    between atoms: _364  and  _367
REMARK  150  A    between atoms: _367  and  _368
REMARK  151  A    between atoms: _371  and  _373
REMARK  152  A    between atoms: _373  and  _374
REMARK  153  A    between atoms: _373  and  _376
REMARK  154  A    between atoms: _376  and  _377
REMARK  155  A    between atoms: _380  and  _382
REMARK  156  A    between atoms: _382  and  _383
REMARK  157  A    between atoms: _382  and  _385
REMARK  158  A    between atoms: _388  and  _390
REMARK  159  A    between atoms: _390  and  _391
REMARK  160  A    between atoms: _390  and  _393
REMARK  161  A    between atoms: _393  and  _394
REMARK  162  A    between atoms: _394  and  _395
REMARK  163  A    between atoms: _397  and  _399
REMARK  164  A    between atoms: _399  and  _400
REMARK  165  A    between atoms: _399  and  _402
REMARK  166  A    between atoms: _402  and  _403
REMARK  167  A    between atoms: _406  and  _408
REMARK  168  A    between atoms: _408  and  _409
REMARK  169  A    between atoms: _411  and  _413
REMARK  170  A    between atoms: _413  and  _414
REMARK  171  A    between atoms: _416  and  _418
REMARK  172  A    between atoms: _418  and  _419
REMARK  173  A    between atoms: _418  and  _421
REMARK  174  A    between atoms: _421  and  _422
REMARK  175  A    between atoms: _425  and  _427
REMARK  176  A    between atoms: _427  and  _428
REMARK  177  A    between atoms: _430  and  _432
REMARK  178  A    between atoms: _432  and  _433
REMARK  179  A    between atoms: _435  and  _437
REMARK  180  A    between atoms: _437  and  _438
REMARK  181  A    between atoms: _437  and  _440
REMARK  182  A    between atoms: _440  and  _441
REMARK  183  A    between atoms: _447  and  _449
REMARK  184  A    between atoms: _449  and  _450
REMARK  185  A    between atoms: _449  and  _452
REMARK  186  A    between atoms: _452  and  _453
REMARK  187  A    between atoms: _456  and  _458
REMARK  188  A    between atoms: _458  and  _459
REMARK  189  A    between atoms: _458  and  _461
REMARK  190  A    between atoms: _464  and  _466
REMARK  191  A    between atoms: _466  and  _467
REMARK  192  A    between atoms: _466  and  _469
REMARK  193  A    between atoms: _469  and  _470
REMARK  194  A    between atoms: _473  and  _475
REMARK  195  A    between atoms: _475  and  _476
REMARK  196  A    between atoms: _475  and  _478
REMARK  197  A    between atoms: _478  and  _479
REMARK  198  A    between atoms: _483  and  _484
REMARK  199  A    between atoms: _489  and  _491
REMARK  200  A    between atoms: _491  and  _492
REMARK  201  A    between atoms: _495  and  _497
REMARK  202  A    between atoms: _497  and  _498
REMARK  203  A    between atoms: _497  and  _500
REMARK  204  A    between atoms: _500  and  _501
REMARK  205  A    between atoms: _506  and  _508
REMARK  206  A    between atoms: _508  and  _509
REMARK  207  A    between atoms: _508  and  _511
REMARK  208  A    between atoms: _511  and  _512
REMARK  209  A    between atoms: _515  and  _517
REMARK  210  A    between atoms: _517  and  _518
REMARK  211  A    between atoms: _517  and  _520
REMARK  212  A    between atoms: _520  and  _521
REMARK  213  A    between atoms: _524  and  _526
REMARK  214  A    between atoms: _526  and  _527
REMARK  215  A    between atoms: _529  and  _531
REMARK  216  A    between atoms: _531  and  _532
REMARK  217  A    between atoms: _531  and  _534
REMARK  218  A    between atoms: _534  and  _535
REMARK  219  A    between atoms: _535  and  _536
REMARK  220  A    between atoms: _536  and  _537
REMARK  221  A    between atoms: _546  and  _548
REMARK  222  A    between atoms: _548  and  _549
REMARK  223  A    between atoms: _548  and  _551
REMARK  224  A    between atoms: _551  and  _552
REMARK                            x       y       z     vdW  Elec       q    Type
REMARK                         _______ _______ _______ _____ _____    ______ ____
ROOT
ATOM      1  O   HOH     1      31.197  23.616  12.086  0.00  0.00    +0.000 OA
ENDROOT
TORSDOF 0
REMARK  Name = ../refined-set-2016/2nmz/2nmz_pocket.pdb
REMARK  224 active torsions:
REMARK  status: ('A' for Active; 'I' for Inactive)
REMARK    1  A    between atoms: _1  and  _3
REMARK    2  A    between atoms: _3  and  _4
REMARK    3  A    between atoms: _3  and  _6
REMARK    4  A    between atoms: _6  and  _7
REMARK    5  A    between atoms: _7  and  _8
REMARK    6  A    between atoms: _8  and  _9
REMARK    7  A    between atoms: _18  and  _20
REMARK    8  A    between atoms: _20  and  _21
REMARK    9  A    between atoms: _20  and  _23
REMARK   10  A    between atoms: _23  and  _24
REMARK   11  A    between atoms: _27  and  _29
REMARK   12  A    between atoms: _29  and  _30
REMARK   13  A    between atoms: _29  and  _32
REMARK   14  A    between atoms: _32  and  _33
REMARK   15  A    between atoms: _36  and  _38
REMARK   16  A    between atoms: _38  and  _39
REMARK   17  A    between atoms: _38  and  _41
REMARK   18  A    between atoms: _41  and  _42
REMARK   19  A    between atoms: _45  and  _47
REMARK   20  A    between atoms: _47  and  _48
REMARK   21  A    between atoms: _47  and  _50
REMARK   22  A    between atoms: _50  and  _51
REMARK   23  A    between atoms: _54  and  _56
REMARK   24  A    between atoms: _56  and  _57
REMARK   25  A    between atoms: _59  and  _61
REMARK   26  A    between atoms: _61  and  _62
REMARK   27  A    between atoms: _65  and  _67
REMARK   28  A    between atoms: _67  and  _68
REMARK   29  A    between atoms: _67  and  _70
REMARK   30  A    between atoms: _70  and  _71
REMARK   31  A    between atoms: _74  and  _76
REMARK   32  A    between atoms: _76  and  _77
REMARK   33  A    between atoms: _76  and  _79
REMARK   34  A    between atoms: _79  and  _80
REMARK   35  A    between atoms: _83  and  _85
REMARK   36  A    between atoms: _85  and  _86
REMARK   37  A    between atoms: _85  and  _88
REMARK   38  A    between atoms: _88  and  _89
REMARK   39  A    between atoms: _92  and  _94
REMARK   40  A    between atoms: _94  and  _95
REMARK   41  A    between atoms: _94  and  _97
REMARK   42  A    between atoms: _100  and  _102
REMARK   43  A    between atoms: _102  and  _103
REMARK   44  A    between atoms: _102  and  _105
REMARK   45  A    between atoms: _105  and  _106
REMARK   46  A    between atoms: _106  and  _107
REMARK   47  A    between atoms: _107  and  _108
REMARK   48  A    between atoms: _108  and  _109
REMARK   49  A    between atoms: _113  and  _115
REMARK   50  A    between atoms: _115  and  _116
REMARK   51  A    between atoms: _115  and  _118
REMARK   52  A    between atoms: _118  and  _119
REMARK   53  A    between atoms: _119  and  _120
REMARK   54  A    between atoms: _122  and  _124
REMARK   55  A    between atoms: _124  and  _125
REMARK   56  A    between atoms: _124  and  _127
REMARK   57  A    between atoms: _127  and  _128
REMARK   58  A    between atoms: _131  and  _133
REMARK   59  A    between atoms: _133  and  _134
REMARK   60  A    between atoms: _136  and  _138
REMARK   61  A    between atoms: _138  and  _139
REMARK   62  A    between atoms: _141  and  _143
REMARK   63  A    between atoms: _143  and  _144
REMARK   64  A    between atoms: _143  and  _146
REMARK   65  A    between atoms: _146  and  _147
REMARK   66  A    between atoms: _150  and  _152
REMARK   67  A    between atoms: _152  and  _153
REMARK   68  A    between atoms: _155  and  _157
REMARK   69  A    between atoms: _157  and  _158
REMARK   70  A    between atoms: _160  and  _162
REMARK   71  A    between atoms: _162  and  _163
REMARK   72  A    between atoms: _162  and  _165
REMARK   73  A    between atoms: _165  and  _166
REMARK   74  A    between atoms: _172  and  _174
REMARK   75  A    between atoms: _174  and  _175
REMARK   76  A    between atoms: _174  and  _177
REMARK   77  A    between atoms: _177  and  _178
REMARK   78  A    between atoms: _181  and  _183
REMARK   79  A    between atoms: _183  and  _184
REMARK   80  A    between atoms: _183  and  _186
REMARK   81  A    between atoms: _189  and  _191
REMARK   82  A    between atoms: _191  and  _192
REMARK   83  A    between atoms: _191  and  _194
REMARK   84  A    between atoms: _194  and  _195
REMARK   85  A    between atoms: _199  and  _200
REMARK   86  A    between atoms: _205  and  _207
REMARK   87  A    between atoms: _207  and  _208
REMARK   88  A    between atoms: _207  and  _210
REMARK   89  A    between atoms: _210  and  _211
REMARK   90  A    between atoms: _215  and  _216
REMARK   91  A    between atoms: _221  and  _223
REMARK   92  A    between atoms: _223  and  _224
REMARK   93  A    between atoms: _227  and  _229
REMARK   94  A    between atoms: _229  and  _230
REMARK   95  A    between atoms: _229  and  _232
REMARK   96  A    between atoms: _232  and  _233
REMARK   97  A    between atoms: _238  and  _240
REMARK   98  A    between atoms: _240  and  _241
REMARK   99  A    between atoms: _240  and  _243
REMARK  100  A    between atoms: _243  and  _244
REMARK  101  A    between atoms: _247  and  _249
REMARK  102  A    between atoms: _249  and  _250
REMARK  103  A    between atoms: _249  and  _252
REMARK  104  A    between atoms: _252  and  _253
REMARK  105  A    between atoms: _256  and  _258
REMARK  106  A    between atoms: _258  and  _259
REMARK  107  A    between atoms: _261  and  _263
REMARK  108  A    between atoms: _263  and  _264
REMARK  109  A    between atoms: _263  and  _266
REMARK  110  A    between atoms: _266  and  _267
REMARK  111  A    between atoms: _267  and  _268
REMARK  112  A    between atoms: _268  and  _269
REMARK  113  A    between atoms: _278  and  _280
REMARK  114  A    between atoms: _280  and  _281
REMARK  115  A    between atoms: _280  and  _283
REMARK  116  A    between atoms: _283  and  _284
REMARK  117  A    between atoms: _289  and  _291
REMARK  118  A    between atoms: _291  and  _292
REMARK  119  A    between atoms: _291  and  _294
REMARK  120  A    between atoms: _294  and  _295
REMARK  121  A    between atoms: _295  and  _296
REMARK  122  A    between atoms: _296  and  _297
REMARK  123  A    between atoms: _306  and  _308
REMARK  124  A    between atoms: _308  and  _309
REMARK  125  A    between atoms: _308  and  _311
REMARK  126  A    between atoms: _311  and  _312
REMARK  127  A    between atoms: _315  and  _317
REMARK  128  A    between atoms: _317  and  _318
REMARK  129  A    between atoms: _317  and  _320
REMARK  130  A    between atoms: _320  and  _321
REMARK  131  A    between atoms: _324  and  _326
REMARK  132  A    between atoms: _326  and  _327
REMARK  133  A    between atoms: _326  and  _329
REMARK  134  A    between atoms: _329  and  _330
REMARK  135  A    between atoms: _333  and  _335
REMARK  136  A    between atoms: _335  and  _336
REMARK  137  A    between atoms: _335  and  _338
REMARK  138  A    between atoms: _338  and  _339
REMARK  139  A    between atoms: _342  and  _344
REMARK  140  A    between atoms: _344  and  _345
REMARK  141  A    between atoms: _347  and  _349
REMARK  142  A    between atoms: _349  and  _350
REMARK  143  A    between atoms: _353  and  _355
REMARK  144  A    between atoms: _355  and  _356
REMARK  145  A    between atoms: _355  and  _358
REMARK  146  A    between atoms: _358  and  _359
REMARK  147  A    between atoms: _362  and  _364
REMARK  148  A    between atoms: _364  and  _365
REMARK  149  A    between atoms: _364  and  _367
REMARK  150  A    between atoms: _367  and  _368
REMARK  151  A    between atoms: _371  and  _373
REMARK  152  A    between atoms: _373  and  _374
REMARK  153  A    between atoms: _373  and  _376
REMARK  154  A    between atoms: _376  and  _377
REMARK  155  A    between atoms: _380  and  _382
REMARK  156  A    between atoms: _382  and  _383
REMARK  157  A    between atoms: _382  and  _385
REMARK  158  A    between atoms: _388  and  _390
REMARK  159  A    between atoms: _390  and  _391
REMARK  160  A    between atoms: _390  and  _393
REMARK  161  A    between atoms: _393  and  _394
REMARK  162  A    between atoms: _394  and  _395
REMARK  163  A    between atoms: _397  and  _399
REMARK  164  A    between atoms: _399  and  _400
REMARK  165  A    between atoms: _399  and  _402
REMARK  166  A    between atoms: _402  and  _403
REMARK  167  A    between atoms: _406  and  _408
REMARK  168  A    between atoms: _408  and  _409
REMARK  169  A    between atoms: _411  and  _413
REMARK  170  A    between atoms: _413  and  _414
REMARK  171  A    between atoms: _416  and  _418
REMARK  172  A    between atoms: _418  and  _419
REMARK  173  A    between atoms: _418  and  _421
REMARK  174  A    between atoms: _421  and  _422
REMARK  175  A    between atoms: _425  and  _427
REMARK  176  A    between atoms: _427  and  _428
REMARK  177  A    between atoms: _430  and  _432
REMARK  178  A    between atoms: _432  and  _433
REMARK  179  A    between atoms: _435  and  _437
REMARK  180  A    between atoms: _437  and  _438
REMARK  181  A    between atoms: _437  and  _440
REMARK  182  A    between atoms: _440  and  _441
REMARK  183  A    between atoms: _447  and  _449
REMARK  184  A    between atoms: _449  and  _450
REMARK  185  A    between atoms: _449  and  _452
REMARK  186  A    between atoms: _452  and  _453
REMARK  187  A    between atoms: _456  and  _458
REMARK  188  A    between atoms: _458  and  _459
REMARK  189  A    between atoms: _458  and  _461
REMARK  190  A    between atoms: _464  and  _466
REMARK  191  A    between atoms: _466  and  _467
REMARK  192  A    between atoms: _466  and  _469
REMARK  193  A    between atoms: _469  and  _470
REMARK  194  A    between atoms: _473  and  _475
REMARK  195  A    between atoms: _475  and  _476
REMARK  196  A    between atoms: _475  and  _478
REMARK  197  A    between atoms: _478  and  _479
REMARK  198  A    between atoms: _483  and  _484
REMARK  199  A    between atoms: _489  and  _491
REMARK  200  A    between atoms: _491  and  _492
REMARK  201  A    between atoms: _495  and  _497
REMARK  202  A    between atoms: _497  and  _498
REMARK  203  A    between atoms: _497  and  _500
REMARK  204  A    between atoms: _500  and  _501
REMARK  205  A    between atoms: _506  and  _508
REMARK  206  A    between atoms: _508  and  _509
REMARK  207  A    between atoms: _508  and  _511
REMARK  208  A    between atoms: _511  and  _512
REMARK  209  A    between atoms: _515  and  _517
REMARK  210  A    between atoms: _517  and  _518
REMARK  211  A    between atoms: _517  and  _520
REMARK  212  A    between atoms: _520  and  _521
REMARK  213  A    between atoms: _524  and  _526
REMARK  214  A    between atoms: _526  and  _527
REMARK  215  A    between atoms: _529  and  _531
REMARK  216  A    between atoms: _531  and  _532
REMARK  217  A    between atoms: _531  and  _534
REMARK  218  A    between atoms: _534  and  _535
REMARK  219  A    between atoms: _535  and  _536
REMARK  220  A    between atoms: _536  and  _537
REMARK  221  A    between atoms: _546  and  _548
REMARK  222  A    between atoms: _548  and  _549
REMARK  223  A    between atoms: _548  and  _551
REMARK  224  A    between atoms: _551  and  _552
REMARK                            x       y       z     vdW  Elec       q    Type
REMARK                         _______ _______ _______ _____ _____    ______ ____
ROOT
ATOM      1  O   HOH     1      20.286  32.309  12.278  0.00  0.00    +0.000 OA
ENDROOT
TORSDOF 0
REMARK  Name = ../refined-set-2016/2nmz/2nmz_pocket.pdb
REMARK  224 active torsions:
REMARK  status: ('A' for Active; 'I' for Inactive)
REMARK    1  A    between atoms: _1  and  _3
REMARK    2  A    between atoms: _3  and  _4
REMARK    3  A    between atoms: _3  and  _6
REMARK    4  A    between atoms: _6  and  _7
REMARK    5  A    between atoms: _7  and  _8
REMARK    6  A    between atoms: _8  and  _9
REMARK    7  A    between atoms: _18  and  _20
REMARK    8  A    between atoms: _20  and  _21
REMARK    9  A    between atoms: _20  and  _23
REMARK   10  A    between atoms: _23  and  _24
REMARK   11  A    between atoms: _27  and  _29
REMARK   12  A    between atoms: _29  and  _30
REMARK   13  A    between atoms: _29  and  _32
REMARK   14  A    between atoms: _32  and  _33
REMARK   15  A    between atoms: _36  and  _38
REMARK   16  A    between atoms: _38  and  _39
REMARK   17  A    between atoms: _38  and  _41
REMARK   18  A    between atoms: _41  and  _42
REMARK   19  A    between atoms: _45  and  _47
REMARK   20  A    between atoms: _47  and  _48
REMARK   21  A    between atoms: _47  and  _50
REMARK   22  A    between atoms: _50  and  _51
REMARK   23  A    between atoms: _54  and  _56
REMARK   24  A    between atoms: _56  and  _57
REMARK   25  A    between atoms: _59  and  _61
REMARK   26  A    between atoms: _61  and  _62
REMARK   27  A    between atoms: _65  and  _67
REMARK   28  A    between atoms: _67  and  _68
REMARK   29  A    between atoms: _67  and  _70
REMARK   30  A    between atoms: _70  and  _71
REMARK   31  A    between atoms: _74  and  _76
REMARK   32  A    between atoms: _76  and  _77
REMARK   33  A    between atoms: _76  and  _79
REMARK   34  A    between atoms: _79  and  _80
REMARK   35  A    between atoms: _83  and  _85
REMARK   36  A    between atoms: _85  and  _86
REMARK   37  A    between atoms: _85  and  _88
REMARK   38  A    between atoms: _88  and  _89
REMARK   39  A    between atoms: _92  and  _94
REMARK   40  A    between atoms: _94  and  _95
REMARK   41  A    between atoms: _94  and  _97
REMARK   42  A    between atoms: _100  and  _102
REMARK   43  A    between atoms: _102  and  _103
REMARK   44  A    between atoms: _102  and  _105
REMARK   45  A    between atoms: _105  and  _106
REMARK   46  A    between atoms: _106  and  _107
REMARK   47  A    between atoms: _107  and  _108
REMARK   48  A    between atoms: _108  and  _109
REMARK   49  A    between atoms: _113  and  _115
REMARK   50  A    between atoms: _115  and  _116
REMARK   51  A    between atoms: _115  and  _118
REMARK   52  A    between atoms: _118  and  _119
REMARK   53  A    between atoms: _119  and  _120
REMARK   54  A    between atoms: _122  and  _124
REMARK   55  A    between atoms: _124  and  _125
REMARK   56  A    between atoms: _124  and  _127
REMARK   57  A    between atoms: _127  and  _128
REMARK   58  A    between atoms: _131  and  _133
REMARK   59  A    between atoms: _133  and  _134
REMARK   60  A    between atoms: _136  and  _138
REMARK   61  A    between atoms: _138  and  _139
REMARK   62  A    between atoms: _141  and  _143
REMARK   63  A    between atoms: _143  and  _144
REMARK   64  A    between atoms: _143  and  _146
REMARK   65  A    between atoms: _146  and  _147
REMARK   66  A    between atoms: _150  and  _152
REMARK   67  A    between atoms: _152  and  _153
REMARK   68  A    between atoms: _155  and  _157
REMARK   69  A    between atoms: _157  and  _158
REMARK   70  A    between atoms: _160  and  _162
REMARK   71  A    between atoms: _162  and  _163
REMARK   72  A    between atoms: _162  and  _165
REMARK   73  A    between atoms: _165  and  _166
REMARK   74  A    between atoms: _172  and  _174
REMARK   75  A    between atoms: _174  and  _175
REMARK   76  A    between atoms: _174  and  _177
REMARK   77  A    between atoms: _177  and  _178
REMARK   78  A    between atoms: _181  and  _183
REMARK   79  A    between atoms: _183  and  _184
REMARK   80  A    between atoms: _183  and  _186
REMARK   81  A    between atoms: _189  and  _191
REMARK   82  A    between atoms: _191  and  _192
REMARK   83  A    between atoms: _191  and  _194
REMARK   84  A    between atoms: _194  and  _195
REMARK   85  A    between atoms: _199  and  _200
REMARK   86  A    between atoms: _205  and  _207
REMARK   87  A    between atoms: _207  and  _208
REMARK   88  A    between atoms: _207  and  _210
REMARK   89  A    between atoms: _210  and  _211
REMARK   90  A    between atoms: _215  and  _216
REMARK   91  A    between atoms: _221  and  _223
REMARK   92  A    between atoms: _223  and  _224
REMARK   93  A    between atoms: _227  and  _229
REMARK   94  A    between atoms: _229  and  _230
REMARK   95  A    between atoms: _229  and  _232
REMARK   96  A    between atoms: _232  and  _233
REMARK   97  A    between atoms: _238  and  _240
REMARK   98  A    between atoms: _240  and  _241
REMARK   99  A    between atoms: _240  and  _243
REMARK  100  A    between atoms: _243  and  _244
REMARK  101  A    between atoms: _247  and  _249
REMARK  102  A    between atoms: _249  and  _250
REMARK  103  A    between atoms: _249  and  _252
REMARK  104  A    between atoms: _252  and  _253
REMARK  105  A    between atoms: _256  and  _258
REMARK  106  A    between atoms: _258  and  _259
REMARK  107  A    between atoms: _261  and  _263
REMARK  108  A    between atoms: _263  and  _264
REMARK  109  A    between atoms: _263  and  _266
REMARK  110  A    between atoms: _266  and  _267
REMARK  111  A    between atoms: _267  and  _268
REMARK  112  A    between atoms: _268  and  _269
REMARK  113  A    between atoms: _278  and  _280
REMARK  114  A    between atoms: _280  and  _281
REMARK  115  A    between atoms: _280  and  _283
REMARK  116  A    between atoms: _283  and  _284
REMARK  117  A    between atoms: _289  and  _291
REMARK  118  A    between atoms: _291  and  _292
REMARK  119  A    between atoms: _291  and  _294
REMARK  120  A    between atoms: _294  and  _295
REMARK  121  A    between atoms: _295  and  _296
REMARK  122  A    between atoms: _296  and  _297
REMARK  123  A    between atoms: _306  and  _308
REMARK  124  A    between atoms: _308  and  _309
REMARK  125  A    between atoms: _308  and  _311
REMARK  126  A    between atoms: _311  and  _312
REMARK  127  A    between atoms: _315  and  _317
REMARK  128  A    between atoms: _317  and  _318
REMARK  129  A    between atoms: _317  and  _320
REMARK  130  A    between atoms: _320  and  _321
REMARK  131  A    between atoms: _324  and  _326
REMARK  132  A    between atoms: _326  and  _327
REMARK  133  A    between atoms: _326  and  _329
REMARK  134  A    between atoms: _329  and  _330
REMARK  135  A    between atoms: _333  and  _335
REMARK  136  A    between atoms: _335  and  _336
REMARK  137  A    between atoms: _335  and  _338
REMARK  138  A    between atoms: _338  and  _339
REMARK  139  A    between atoms: _342  and  _344
REMARK  140  A    between atoms: _344  and  _345
REMARK  141  A    between atoms: _347  and  _349
REMARK  142  A    between atoms: _349  and  _350
REMARK  143  A    between atoms: _353  and  _355
REMARK  144  A    between atoms: _355  and  _356
REMARK  145  A    between atoms: _355  and  _358
REMARK  146  A    between atoms: _358  and  _359
REMARK  147  A    between atoms: _362  and  _364
REMARK  148  A    between atoms: _364  and  _365
REMARK  149  A    between atoms: _364  and  _367
REMARK  150  A    between atoms: _367  and  _368
REMARK  151  A    between atoms: _371  and  _373
REMARK  152  A    between atoms: _373  and  _374
REMARK  153  A    between atoms: _373  and  _376
REMARK  154  A    between atoms: _376  and  _377
REMARK  155  A    between atoms: _380  and  _382
REMARK  156  A    between atoms: _382  and  _383
REMARK  157  A    between atoms: _382  and  _385
REMARK  158  A    between atoms: _388  and  _390
REMARK  159  A    between atoms: _390  and  _391
REMARK  160  A    between atoms: _390  and  _393
REMARK  161  A    between atoms: _393  and  _394
REMARK  162  A    between atoms: _394  and  _395
REMARK  163  A    between atoms: _397  and  _399
REMARK  164  A    between atoms: _399  and  _400
REMARK  165  A    between atoms: _399  and  _402
REMARK  166  A    between atoms: _402  and  _403
REMARK  167  A    between atoms: _406  and  _408
REMARK  168  A    between atoms: _408  and  _409
REMARK  169  A    between atoms: _411  and  _413
REMARK  170  A    between atoms: _413  and  _414
REMARK  171  A    between atoms: _416  and  _418
REMARK  172  A    between atoms: _418  and  _419
REMARK  173  A    between atoms: _418  and  _421
REMARK  174  A    between atoms: _421  and  _422
REMARK  175  A    between atoms: _425  and  _427
REMARK  176  A    between atoms: _427  and  _428
REMARK  177  A    between atoms: _430  and  _432
REMARK  178  A    between atoms: _432  and  _433
REMARK  179  A    between atoms: _435  and  _437
REMARK  180  A    between atoms: _437  and  _438
REMARK  181  A    between atoms: _437  and  _440
REMARK  182  A    between atoms: _440  and  _441
REMARK  183  A    between atoms: _447  and  _449
REMARK  184  A    between atoms: _449  and  _450
REMARK  185  A    between atoms: _449  and  _452
REMARK  186  A    between atoms: _452  and  _453
REMARK  187  A    between atoms: _456  and  _458
REMARK  188  A    between atoms: _458  and  _459
REMARK  189  A    between atoms: _458  and  _461
REMARK  190  A    between atoms: _464  and  _466
REMARK  191  A    between atoms: _466  and  _467
REMARK  192  A    between atoms: _466  and  _469
REMARK  193  A    between atoms: _469  and  _470
REMARK  194  A    between atoms: _473  and  _475
REMARK  195  A    between atoms: _475  and  _476
REMARK  196  A    between atoms: _475  and  _478
REMARK  197  A    between atoms: _478  and  _479
REMARK  198  A    between atoms: _483  and  _484
REMARK  199  A    between atoms: _489  and  _491
REMARK  200  A    between atoms: _491  and  _492
REMARK  201  A    between atoms: _495  and  _497
REMARK  202  A    between atoms: _497  and  _498
REMARK  203  A    between atoms: _497  and  _500
REMARK  204  A    between atoms: _500  and  _501
REMARK  205  A    between atoms: _506  and  _508
REMARK  206  A    between atoms: _508  and  _509
REMARK  207  A    between atoms: _508  and  _511
REMARK  208  A    between atoms: _511  and  _512
REMARK  209  A    between atoms: _515  and  _517
REMARK  210  A    between atoms: _517  and  _518
REMARK  211  A    between atoms: _517  and  _520
REMARK  212  A    between atoms: _520  and  _521
REMARK  213  A    between atoms: _524  and  _526
REMARK  214  A    between atoms: _526  and  _527
REMARK  215  A    between atoms: _529  and  _531
REMARK  216  A    between atoms: _531  and  _532
REMARK  217  A    between atoms: _531  and  _534
REMARK  218  A    between atoms: _534  and  _535
REMARK  219  A    between atoms: _535  and  _536
REMARK  220  A    between atoms: _536  and  _537
REMARK  221  A    between atoms: _546  and  _548
REMARK  222  A    between atoms: _548  and  _549
REMARK  223  A    between atoms: _548  and  _551
REMARK  224  A    between atoms: _551  and  _552
REMARK                            x       y       z     vdW  Elec       q    Type
REMARK                         _______ _______ _______ _____ _____    ______ ____
ROOT
ATOM      1  O   HOH     1      28.207  34.907  20.822  0.00  0.00    +0.000 OA
ENDROOT
TORSDOF 0
REMARK  Name = ../refined-set-2016/2nmz/2nmz_pocket.pdb
REMARK  224 active torsions:
REMARK  status: ('A' for Active; 'I' for Inactive)
REMARK    1  A    between atoms: _1  and  _3
REMARK    2  A    between atoms: _3  and  _4
REMARK    3  A    between atoms: _3  and  _6
REMARK    4  A    between atoms: _6  and  _7
REMARK    5  A    between atoms: _7  and  _8
REMARK    6  A    between atoms: _8  and  _9
REMARK    7  A    between atoms: _18  and  _20
REMARK    8  A    between atoms: _20  and  _21
REMARK    9  A    between atoms: _20  and  _23
REMARK   10  A    between atoms: _23  and  _24
REMARK   11  A    between atoms: _27  and  _29
REMARK   12  A    between atoms: _29  and  _30
REMARK   13  A    between atoms: _29  and  _32
REMARK   14  A    between atoms: _32  and  _33
REMARK   15  A    between atoms: _36  and  _38
REMARK   16  A    between atoms: _38  and  _39
REMARK   17  A    between atoms: _38  and  _41
REMARK   18  A    between atoms: _41  and  _42
REMARK   19  A    between atoms: _45  and  _47
REMARK   20  A    between atoms: _47  and  _48
REMARK   21  A    between atoms: _47  and  _50
REMARK   22  A    between atoms: _50  and  _51
REMARK   23  A    between atoms: _54  and  _56
REMARK   24  A    between atoms: _56  and  _57
REMARK   25  A    between atoms: _59  and  _61
REMARK   26  A    between atoms: _61  and  _62
REMARK   27  A    between atoms: _65  and  _67
REMARK   28  A    between atoms: _67  and  _68
REMARK   29  A    between atoms: _67  and  _70
REMARK   30  A    between atoms: _70  and  _71
REMARK   31  A    between atoms: _74  and  _76
REMARK   32  A    between atoms: _76  and  _77
REMARK   33  A    between atoms: _76  and  _79
REMARK   34  A    between atoms: _79  and  _80
REMARK   35  A    between atoms: _83  and  _85
REMARK   36  A    between atoms: _85  and  _86
REMARK   37  A    between atoms: _85  and  _88
REMARK   38  A    between atoms: _88  and  _89
REMARK   39  A    between atoms: _92  and  _94
REMARK   40  A    between atoms: _94  and  _95
REMARK   41  A    between atoms: _94  and  _97
REMARK   42  A    between atoms: _100  and  _102
REMARK   43  A    between atoms: _102  and  _103
REMARK   44  A    between atoms: _102  and  _105
REMARK   45  A    between atoms: _105  and  _106
REMARK   46  A    between atoms: _106  and  _107
REMARK   47  A    between atoms: _107  and  _108
REMARK   48  A    between atoms: _108  and  _109
REMARK   49  A    between atoms: _113  and  _115
REMARK   50  A    between atoms: _115  and  _116
REMARK   51  A    between atoms: _115  and  _118
REMARK   52  A    between atoms: _118  and  _119
REMARK   53  A    between atoms: _119  and  _120
REMARK   54  A    between atoms: _122  and  _124
REMARK   55  A    between atoms: _124  and  _125
REMARK   56  A    between atoms: _124  and  _127
REMARK   57  A    between atoms: _127  and  _128
REMARK   58  A    between atoms: _131  and  _133
REMARK   59  A    between atoms: _133  and  _134
REMARK   60  A    between atoms: _136  and  _138
REMARK   61  A    between atoms: _138  and  _139
REMARK   62  A    between atoms: _141  and  _143
REMARK   63  A    between atoms: _143  and  _144
REMARK   64  A    between atoms: _143  and  _146
REMARK   65  A    between atoms: _146  and  _147
REMARK   66  A    between atoms: _150  and  _152
REMARK   67  A    between atoms: _152  and  _153
REMARK   68  A    between atoms: _155  and  _157
REMARK   69  A    between atoms: _157  and  _158
REMARK   70  A    between atoms: _160  and  _162
REMARK   71  A    between atoms: _162  and  _163
REMARK   72  A    between atoms: _162  and  _165
REMARK   73  A    between atoms: _165  and  _166
REMARK   74  A    between atoms: _172  and  _174
REMARK   75  A    between atoms: _174  and  _175
REMARK   76  A    between atoms: _174  and  _177
REMARK   77  A    between atoms: _177  and  _178
REMARK   78  A    between atoms: _181  and  _183
REMARK   79  A    between atoms: _183  and  _184
REMARK   80  A    between atoms: _183  and  _186
REMARK   81  A    between atoms: _189  and  _191
REMARK   82  A    between atoms: _191  and  _192
REMARK   83  A    between atoms: _191  and  _194
REMARK   84  A    between atoms: _194  and  _195
REMARK   85  A    between atoms: _199  and  _200
REMARK   86  A    between atoms: _205  and  _207
REMARK   87  A    between atoms: _207  and  _208
REMARK   88  A    between atoms: _207  and  _210
REMARK   89  A    between atoms: _210  and  _211
REMARK   90  A    between atoms: _215  and  _216
REMARK   91  A    between atoms: _221  and  _223
REMARK   92  A    between atoms: _223  and  _224
REMARK   93  A    between atoms: _227  and  _229
REMARK   94  A    between atoms: _229  and  _230
REMARK   95  A    between atoms: _229  and  _232
REMARK   96  A    between atoms: _232  and  _233
REMARK   97  A    between atoms: _238  and  _240
REMARK   98  A    between atoms: _240  and  _241
REMARK   99  A    between atoms: _240  and  _243
REMARK  100  A    between atoms: _243  and  _244
REMARK  101  A    between atoms: _247  and  _249
REMARK  102  A    between atoms: _249  and  _250
REMARK  103  A    between atoms: _249  and  _252
REMARK  104  A    between atoms: _252  and  _253
REMARK  105  A    between atoms: _256  and  _258
REMARK  106  A    between atoms: _258  and  _259
REMARK  107  A    between atoms: _261  and  _263
REMARK  108  A    between atoms: _263  and  _264
REMARK  109  A    between atoms: _263  and  _266
REMARK  110  A    between atoms: _266  and  _267
REMARK  111  A    between atoms: _267  and  _268
REMARK  112  A    between atoms: _268  and  _269
REMARK  113  A    between atoms: _278  and  _280
REMARK  114  A    between atoms: _280  and  _281
REMARK  115  A    between atoms: _280  and  _283
REMARK  116  A    between atoms: _283  and  _284
REMARK  117  A    between atoms: _289  and  _291
REMARK  118  A    between atoms: _291  and  _292
REMARK  119  A    between atoms: _291  and  _294
REMARK  120  A    between atoms: _294  and  _295
REMARK  121  A    between atoms: _295  and  _296
REMARK  122  A    between atoms: _296  and  _297
REMARK  123  A    between atoms: _306  and  _308
REMARK  124  A    between atoms: _308  and  _309
REMARK  125  A    between atoms: _308  and  _311
REMARK  126  A    between atoms: _311  and  _312
REMARK  127  A    between atoms: _315  and  _317
REMARK  128  A    between atoms: _317  and  _318
REMARK  129  A    between atoms: _317  and  _320
REMARK  130  A    between atoms: _320  and  _321
REMARK  131  A    between atoms: _324  and  _326
REMARK  132  A    between atoms: _326  and  _327
REMARK  133  A    between atoms: _326  and  _329
REMARK  134  A    between atoms: _329  and  _330
REMARK  135  A    between atoms: _333  and  _335
REMARK  136  A    between atoms: _335  and  _336
REMARK  137  A    between atoms: _335  and  _338
REMARK  138  A    between atoms: _338  and  _339
REMARK  139  A    between atoms: _342  and  _344
REMARK  140  A    between atoms: _344  and  _345
REMARK  141  A    between atoms: _347  and  _349
REMARK  142  A    between atoms: _349  and  _350
REMARK  143  A    between atoms: _353  and  _355
REMARK  144  A    between atoms: _355  and  _356
REMARK  145  A    between atoms: _355  and  _358
REMARK  146  A    between atoms: _358  and  _359
REMARK  147  A    between atoms: _362  and  _364
REMARK  148  A    between atoms: _364  and  _365
REMARK  149  A    between atoms: _364  and  _367
REMARK  150  A    between atoms: _367  and  _368
REMARK  151  A    between atoms: _371  and  _373
REMARK  152  A    between atoms: _373  and  _374
REMARK  153  A    between atoms: _373  and  _376
REMARK  154  A    between atoms: _376  and  _377
REMARK  155  A    between atoms: _380  and  _382
REMARK  156  A    between atoms: _382  and  _383
REMARK  157  A    between atoms: _382  and  _385
REMARK  158  A    between atoms: _388  and  _390
REMARK  159  A    between atoms: _390  and  _391
REMARK  160  A    between atoms: _390  and  _393
REMARK  161  A    between atoms: _393  and  _394
REMARK  162  A    between atoms: _394  and  _395
REMARK  163  A    between atoms: _397  and  _399
REMARK  164  A    between atoms: _399  and  _400
REMARK  165  A    between atoms: _399  and  _402
REMARK  166  A    between atoms: _402  and  _403
REMARK  167  A    between atoms: _406  and  _408
REMARK  168  A    between atoms: _408  and  _409
REMARK  169  A    between atoms: _411  and  _413
REMARK  170  A    between atoms: _413  and  _414
REMARK  171  A    between atoms: _416  and  _418
REMARK  172  A    between atoms: _418  and  _419
REMARK  173  A    between atoms: _418  and  _421
REMARK  174  A    between atoms: _421  and  _422
REMARK  175  A    between atoms: _425  and  _427
REMARK  176  A    between atoms: _427  and  _428
REMARK  177  A    between atoms: _430  and  _432
REMARK  178  A    between atoms: _432  and  _433
REMARK  179  A    between atoms: _435  and  _437
REMARK  180  A    between atoms: _437  and  _438
REMARK  181  A    between atoms: _437  and  _440
REMARK  182  A    between atoms: _440  and  _441
REMARK  183  A    between atoms: _447  and  _449
REMARK  184  A    between atoms: _449  and  _450
REMARK  185  A    between atoms: _449  and  _452
REMARK  186  A    between atoms: _452  and  _453
REMARK  187  A    between atoms: _456  and  _458
REMARK  188  A    between atoms: _458  and  _459
REMARK  189  A    between atoms: _458  and  _461
REMARK  190  A    between atoms: _464  and  _466
REMARK  191  A    between atoms: _466  and  _467
REMARK  192  A    between atoms: _466  and  _469
REMARK  193  A    between atoms: _469  and  _470
REMARK  194  A    between atoms: _473  and  _475
REMARK  195  A    between atoms: _475  and  _476
REMARK  196  A    between atoms: _475  and  _478
REMARK  197  A    between atoms: _478  and  _479
REMARK  198  A    between atoms: _483  and  _484
REMARK  199  A    between atoms: _489  and  _491
REMARK  200  A    between atoms: _491  and  _492
REMARK  201  A    between atoms: _495  and  _497
REMARK  202  A    between atoms: _497  and  _498
REMARK  203  A    between atoms: _497  and  _500
REMARK  204  A    between atoms: _500  and  _501
REMARK  205  A    between atoms: _506  and  _508
REMARK  206  A    between atoms: _508  and  _509
REMARK  207  A    between atoms: _508  and  _511
REMARK  208  A    between atoms: _511  and  _512
REMARK  209  A    between atoms: _515  and  _517
REMARK  210  A    between atoms: _517  and  _518
REMARK  211  A    between atoms: _517  and  _520
REMARK  212  A    between atoms: _520  and  _521
REMARK  213  A    between atoms: _524  and  _526
REMARK  214  A    between atoms: _526  and  _527
REMARK  215  A    between atoms: _529  and  _531
REMARK  216  A    between atoms: _531  and  _532
REMARK  217  A    between atoms: _531  and  _534
REMARK  218  A    between atoms: _534  and  _535
REMARK  219  A    between atoms: _535  and  _536
REMARK  220  A    between atoms: _536  and  _537
REMARK  221  A    between atoms: _546  and  _548
REMARK  222  A    between atoms: _548  and  _549
REMARK  223  A    between atoms: _548  and  _551
REMARK  224  A    between atoms: _551  and  _552
REMARK                            x       y       z     vdW  Elec       q    Type
REMARK                         _______ _______ _______ _____ _____    ______ ____
ROOT
ATOM      1  O   HOH     1      30.229  36.782  19.336  0.00  0.00    +0.000 OA
ENDROOT
TORSDOF 0
REMARK  Name = ../refined-set-2016/2nmz/2nmz_pocket.pdb
REMARK  224 active torsions:
REMARK  status: ('A' for Active; 'I' for Inactive)
REMARK    1  A    between atoms: _1  and  _3
REMARK    2  A    between atoms: _3  and  _4
REMARK    3  A    between atoms: _3  and  _6
REMARK    4  A    between atoms: _6  and  _7
REMARK    5  A    between atoms: _7  and  _8
REMARK    6  A    between atoms: _8  and  _9
REMARK    7  A    between atoms: _18  and  _20
REMARK    8  A    between atoms: _20  and  _21
REMARK    9  A    between atoms: _20  and  _23
REMARK   10  A    between atoms: _23  and  _24
REMARK   11  A    between atoms: _27  and  _29
REMARK   12  A    between atoms: _29  and  _30
REMARK   13  A    between atoms: _29  and  _32
REMARK   14  A    between atoms: _32  and  _33
REMARK   15  A    between atoms: _36  and  _38
REMARK   16  A    between atoms: _38  and  _39
REMARK   17  A    between atoms: _38  and  _41
REMARK   18  A    between atoms: _41  and  _42
REMARK   19  A    between atoms: _45  and  _47
REMARK   20  A    between atoms: _47  and  _48
REMARK   21  A    between atoms: _47  and  _50
REMARK   22  A    between atoms: _50  and  _51
REMARK   23  A    between atoms: _54  and  _56
REMARK   24  A    between atoms: _56  and  _57
REMARK   25  A    between atoms: _59  and  _61
REMARK   26  A    between atoms: _61  and  _62
REMARK   27  A    between atoms: _65  and  _67
REMARK   28  A    between atoms: _67  and  _68
REMARK   29  A    between atoms: _67  and  _70
REMARK   30  A    between atoms: _70  and  _71
REMARK   31  A    between atoms: _74  and  _76
REMARK   32  A    between atoms: _76  and  _77
REMARK   33  A    between atoms: _76  and  _79
REMARK   34  A    between atoms: _79  and  _80
REMARK   35  A    between atoms: _83  and  _85
REMARK   36  A    between atoms: _85  and  _86
REMARK   37  A    between atoms: _85  and  _88
REMARK   38  A    between atoms: _88  and  _89
REMARK   39  A    between atoms: _92  and  _94
REMARK   40  A    between atoms: _94  and  _95
REMARK   41  A    between atoms: _94  and  _97
REMARK   42  A    between atoms: _100  and  _102
REMARK   43  A    between atoms: _102  and  _103
REMARK   44  A    between atoms: _102  and  _105
REMARK   45  A    between atoms: _105  and  _106
REMARK   46  A    between atoms: _106  and  _107
REMARK   47  A    between atoms: _107  and  _108
REMARK   48  A    between atoms: _108  and  _109
REMARK   49  A    between atoms: _113  and  _115
REMARK   50  A    between atoms: _115  and  _116
REMARK   51  A    between atoms: _115  and  _118
REMARK   52  A    between atoms: _118  and  _119
REMARK   53  A    between atoms: _119  and  _120
REMARK   54  A    between atoms: _122  and  _124
REMARK   55  A    between atoms: _124  and  _125
REMARK   56  A    between atoms: _124  and  _127
REMARK   57  A    between atoms: _127  and  _128
REMARK   58  A    between atoms: _131  and  _133
REMARK   59  A    between atoms: _133  and  _134
REMARK   60  A    between atoms: _136  and  _138
REMARK   61  A    between atoms: _138  and  _139
REMARK   62  A    between atoms: _141  and  _143
REMARK   63  A    between atoms: _143  and  _144
REMARK   64  A    between atoms: _143  and  _146
REMARK   65  A    between atoms: _146  and  _147
REMARK   66  A    between atoms: _150  and  _152
REMARK   67  A    between atoms: _152  and  _153
REMARK   68  A    between atoms: _155  and  _157
REMARK   69  A    between atoms: _157  and  _158
REMARK   70  A    between atoms: _160  and  _162
REMARK   71  A    between atoms: _162  and  _163
REMARK   72  A    between atoms: _162  and  _165
REMARK   73  A    between atoms: _165  and  _166
REMARK   74  A    between atoms: _172  and  _174
REMARK   75  A    between atoms: _174  and  _175
REMARK   76  A    between atoms: _174  and  _177
REMARK   77  A    between atoms: _177  and  _178
REMARK   78  A    between atoms: _181  and  _183
REMARK   79  A    between atoms: _183  and  _184
REMARK   80  A    between atoms: _183  and  _186
REMARK   81  A    between atoms: _189  and  _191
REMARK   82  A    between atoms: _191  and  _192
REMARK   83  A    between atoms: _191  and  _194
REMARK   84  A    between atoms: _194  and  _195
REMARK   85  A    between atoms: _199  and  _200
REMARK   86  A    between atoms: _205  and  _207
REMARK   87  A    between atoms: _207  and  _208
REMARK   88  A    between atoms: _207  and  _210
REMARK   89  A    between atoms: _210  and  _211
REMARK   90  A    between atoms: _215  and  _216
REMARK   91  A    between atoms: _221  and  _223
REMARK   92  A    between atoms: _223  and  _224
REMARK   93  A    between atoms: _227  and  _229
REMARK   94  A    between atoms: _229  and  _230
REMARK   95  A    between atoms: _229  and  _232
REMARK   96  A    between atoms: _232  and  _233
REMARK   97  A    between atoms: _238  and  _240
REMARK   98  A    between atoms: _240  and  _241
REMARK   99  A    between atoms: _240  and  _243
REMARK  100  A    between atoms: _243  and  _244
REMARK  101  A    between atoms: _247  and  _249
REMARK  102  A    between atoms: _249  and  _250
REMARK  103  A    between atoms: _249  and  _252
REMARK  104  A    between atoms: _252  and  _253
REMARK  105  A    between atoms: _256  and  _258
REMARK  106  A    between atoms: _258  and  _259
REMARK  107  A    between atoms: _261  and  _263
REMARK  108  A    between atoms: _263  and  _264
REMARK  109  A    between atoms: _263  and  _266
REMARK  110  A    between atoms: _266  and  _267
REMARK  111  A    between atoms: _267  and  _268
REMARK  112  A    between atoms: _268  and  _269
REMARK  113  A    between atoms: _278  and  _280
REMARK  114  A    between atoms: _280  and  _281
REMARK  115  A    between atoms: _280  and  _283
REMARK  116  A    between atoms: _283  and  _284
REMARK  117  A    between atoms: _289  and  _291
REMARK  118  A    between atoms: _291  and  _292
REMARK  119  A    between atoms: _291  and  _294
REMARK  120  A    between atoms: _294  and  _295
REMARK  121  A    between atoms: _295  and  _296
REMARK  122  A    between atoms: _296  and  _297
REMARK  123  A    between atoms: _306  and  _308
REMARK  124  A    between atoms: _308  and  _309
REMARK  125  A    between atoms: _308  and  _311
REMARK  126  A    between atoms: _311  and  _312
REMARK  127  A    between atoms: _315  and  _317
REMARK  128  A    between atoms: _317  and  _318
REMARK  129  A    between atoms: _317  and  _320
REMARK  130  A    between atoms: _320  and  _321
REMARK  131  A    between atoms: _324  and  _326
REMARK  132  A    between atoms: _326  and  _327
REMARK  133  A    between atoms: _326  and  _329
REMARK  134  A    between atoms: _329  and  _330
REMARK  135  A    between atoms: _333  and  _335
REMARK  136  A    between atoms: _335  and  _336
REMARK  137  A    between atoms: _335  and  _338
REMARK  138  A    between atoms: _338  and  _339
REMARK  139  A    between atoms: _342  and  _344
REMARK  140  A    between atoms: _344  and  _345
REMARK  141  A    between atoms: _347  and  _349
REMARK  142  A    between atoms: _349  and  _350
REMARK  143  A    between atoms: _353  and  _355
REMARK  144  A    between atoms: _355  and  _356
REMARK  145  A    between atoms: _355  and  _358
REMARK  146  A    between atoms: _358  and  _359
REMARK  147  A    between atoms: _362  and  _364
REMARK  148  A    between atoms: _364  and  _365
REMARK  149  A    between atoms: _364  and  _367
REMARK  150  A    between atoms: _367  and  _368
REMARK  151  A    between atoms: _371  and  _373
REMARK  152  A    between atoms: _373  and  _374
REMARK  153  A    between atoms: _373  and  _376
REMARK  154  A    between atoms: _376  and  _377
REMARK  155  A    between atoms: _380  and  _382
REMARK  156  A    between atoms: _382  and  _383
REMARK  157  A    between atoms: _382  and  _385
REMARK  158  A    between atoms: _388  and  _390
REMARK  159  A    between atoms: _390  and  _391
REMARK  160  A    between atoms: _390  and  _393
REMARK  161  A    between atoms: _393  and  _394
REMARK  162  A    between atoms: _394  and  _395
REMARK  163  A    between atoms: _397  and  _399
REMARK  164  A    between atoms: _399  and  _400
REMARK  165  A    between atoms: _399  and  _402
REMARK  166  A    between atoms: _402  and  _403
REMARK  167  A    between atoms: _406  and  _408
REMARK  168  A    between atoms: _408  and  _409
REMARK  169  A    between atoms: _411  and  _413
REMARK  170  A    between atoms: _413  and  _414
REMARK  171  A    between atoms: _416  and  _418
REMARK  172  A    between atoms: _418  and  _419
REMARK  173  A    between atoms: _418  and  _421
REMARK  174  A    between atoms: _421  and  _422
REMARK  175  A    between atoms: _425  and  _427
REMARK  176  A    between atoms: _427  and  _428
REMARK  177  A    between atoms: _430  and  _432
REMARK  178  A    between atoms: _432  and  _433
REMARK  179  A    between atoms: _435  and  _437
REMARK  180  A    between atoms: _437  and  _438
REMARK  181  A    between atoms: _437  and  _440
REMARK  182  A    between atoms: _440  and  _441
REMARK  183  A    between atoms: _447  and  _449
REMARK  184  A    between atoms: _449  and  _450
REMARK  185  A    between atoms: _449  and  _452
REMARK  186  A    between atoms: _452  and  _453
REMARK  187  A    between atoms: _456  and  _458
REMARK  188  A    between atoms: _458  and  _459
REMARK  189  A    between atoms: _458  and  _461
REMARK  190  A    between atoms: _464  and  _466
REMARK  191  A    between atoms: _466  and  _467
REMARK  192  A    between atoms: _466  and  _469
REMARK  193  A    between atoms: _469  and  _470
REMARK  194  A    between atoms: _473  and  _475
REMARK  195  A    between atoms: _475  and  _476
REMARK  196  A    between atoms: _475  and  _478
REMARK  197  A    between atoms: _478  and  _479
REMARK  198  A    between atoms: _483  and  _484
REMARK  199  A    between atoms: _489  and  _491
REMARK  200  A    between atoms: _491  and  _492
REMARK  201  A    between atoms: _495  and  _497
REMARK  202  A    between atoms: _497  and  _498
REMARK  203  A    between atoms: _497  and  _500
REMARK  204  A    between atoms: _500  and  _501
REMARK  205  A    between atoms: _506  and  _508
REMARK  206  A    between atoms: _508  and  _509
REMARK  207  A    between atoms: _508  and  _511
REMARK  208  A    between atoms: _511  and  _512
REMARK  209  A    between atoms: _515  and  _517
REMARK  210  A    between atoms: _517  and  _518
REMARK  211  A    between atoms: _517  and  _520
REMARK  212  A    between atoms: _520  and  _521
REMARK  213  A    between atoms: _524  and  _526
REMARK  214  A    between atoms: _526  and  _527
REMARK  215  A    between atoms: _529  and  _531
REMARK  216  A    between atoms: _531  and  _532
REMARK  217  A    between atoms: _531  and  _534
REMARK  218  A    between atoms: _534  and  _535
REMARK  219  A    between atoms: _535  and  _536
REMARK  220  A    between atoms: _536  and  _537
REMARK  221  A    between atoms: _546  and  _548
REMARK  222  A    between atoms: _548  and  _549
REMARK  223  A    between atoms: _548  and  _551
REMARK  224  A    between atoms: _551  and  _552
REMARK                            x       y       z     vdW  Elec       q    Type
REMARK                         _______ _______ _______ _____ _____    ______ ____
ROOT
ATOM      1  O   HOH     1      19.627  23.336  13.251  0.00  0.00    +0.000 OA
ENDROOT
TORSDOF 0
REMARK  Name = ../refined-set-2016/2nmz/2nmz_pocket.pdb
REMARK  224 active torsions:
REMARK  status: ('A' for Active; 'I' for Inactive)
REMARK    1  A    between atoms: _1  and  _3
REMARK    2  A    between atoms: _3  and  _4
REMARK    3  A    between atoms: _3  and  _6
REMARK    4  A    between atoms: _6  and  _7
REMARK    5  A    between atoms: _7  and  _8
REMARK    6  A    between atoms: _8  and  _9
REMARK    7  A    between atoms: _18  and  _20
REMARK    8  A    between atoms: _20  and  _21
REMARK    9  A    between atoms: _20  and  _23
REMARK   10  A    between atoms: _23  and  _24
REMARK   11  A    between atoms: _27  and  _29
REMARK   12  A    between atoms: _29  and  _30
REMARK   13  A    between atoms: _29  and  _32
REMARK   14  A    between atoms: _32  and  _33
REMARK   15  A    between atoms: _36  and  _38
REMARK   16  A    between atoms: _38  and  _39
REMARK   17  A    between atoms: _38  and  _41
REMARK   18  A    between atoms: _41  and  _42
REMARK   19  A    between atoms: _45  and  _47
REMARK   20  A    between atoms: _47  and  _48
REMARK   21  A    between atoms: _47  and  _50
REMARK   22  A    between atoms: _50  and  _51
REMARK   23  A    between atoms: _54  and  _56
REMARK   24  A    between atoms: _56  and  _57
REMARK   25  A    between atoms: _59  and  _61
REMARK   26  A    between atoms: _61  and  _62
REMARK   27  A    between atoms: _65  and  _67
REMARK   28  A    between atoms: _67  and  _68
REMARK   29  A    between atoms: _67  and  _70
REMARK   30  A    between atoms: _70  and  _71
REMARK   31  A    between atoms: _74  and  _76
REMARK   32  A    between atoms: _76  and  _77
REMARK   33  A    between atoms: _76  and  _79
REMARK   34  A    between atoms: _79  and  _80
REMARK   35  A    between atoms: _83  and  _85
REMARK   36  A    between atoms: _85  and  _86
REMARK   37  A    between atoms: _85  and  _88
REMARK   38  A    between atoms: _88  and  _89
REMARK   39  A    between atoms: _92  and  _94
REMARK   40  A    between atoms: _94  and  _95
REMARK   41  A    between atoms: _94  and  _97
REMARK   42  A    between atoms: _100  and  _102
REMARK   43  A    between atoms: _102  and  _103
REMARK   44  A    between atoms: _102  and  _105
REMARK   45  A    between atoms: _105  and  _106
REMARK   46  A    between atoms: _106  and  _107
REMARK   47  A    between atoms: _107  and  _108
REMARK   48  A    between atoms: _108  and  _109
REMARK   49  A    between atoms: _113  and  _115
REMARK   50  A    between atoms: _115  and  _116
REMARK   51  A    between atoms: _115  and  _118
REMARK   52  A    between atoms: _118  and  _119
REMARK   53  A    between atoms: _119  and  _120
REMARK   54  A    between atoms: _122  and  _124
REMARK   55  A    between atoms: _124  and  _125
REMARK   56  A    between atoms: _124  and  _127
REMARK   57  A    between atoms: _127  and  _128
REMARK   58  A    between atoms: _131  and  _133
REMARK   59  A    between atoms: _133  and  _134
REMARK   60  A    between atoms: _136  and  _138
REMARK   61  A    between atoms: _138  and  _139
REMARK   62  A    between atoms: _141  and  _143
REMARK   63  A    between atoms: _143  and  _144
REMARK   64  A    between atoms: _143  and  _146
REMARK   65  A    between atoms: _146  and  _147
REMARK   66  A    between atoms: _150  and  _152
REMARK   67  A    between atoms: _152  and  _153
REMARK   68  A    between atoms: _155  and  _157
REMARK   69  A    between atoms: _157  and  _158
REMARK   70  A    between atoms: _160  and  _162
REMARK   71  A    between atoms: _162  and  _163
REMARK   72  A    between atoms: _162  and  _165
REMARK   73  A    between atoms: _165  and  _166
REMARK   74  A    between atoms: _172  and  _174
REMARK   75  A    between atoms: _174  and  _175
REMARK   76  A    between atoms: _174  and  _177
REMARK   77  A    between atoms: _177  and  _178
REMARK   78  A    between atoms: _181  and  _183
REMARK   79  A    between atoms: _183  and  _184
REMARK   80  A    between atoms: _183  and  _186
REMARK   81  A    between atoms: _189  and  _191
REMARK   82  A    between atoms: _191  and  _192
REMARK   83  A    between atoms: _191  and  _194
REMARK   84  A    between atoms: _194  and  _195
REMARK   85  A    between atoms: _199  and  _200
REMARK   86  A    between atoms: _205  and  _207
REMARK   87  A    between atoms: _207  and  _208
REMARK   88  A    between atoms: _207  and  _210
REMARK   89  A    between atoms: _210  and  _211
REMARK   90  A    between atoms: _215  and  _216
REMARK   91  A    between atoms: _221  and  _223
REMARK   92  A    between atoms: _223  and  _224
REMARK   93  A    between atoms: _227  and  _229
REMARK   94  A    between atoms: _229  and  _230
REMARK   95  A    between atoms: _229  and  _232
REMARK   96  A    between atoms: _232  and  _233
REMARK   97  A    between atoms: _238  and  _240
REMARK   98  A    between atoms: _240  and  _241
REMARK   99  A    between atoms: _240  and  _243
REMARK  100  A    between atoms: _243  and  _244
REMARK  101  A    between atoms: _247  and  _249
REMARK  102  A    between atoms: _249  and  _250
REMARK  103  A    between atoms: _249  and  _252
REMARK  104  A    between atoms: _252  and  _253
REMARK  105  A    between atoms: _256  and  _258
REMARK  106  A    between atoms: _258  and  _259
REMARK  107  A    between atoms: _261  and  _263
REMARK  108  A    between atoms: _263  and  _264
REMARK  109  A    between atoms: _263  and  _266
REMARK  110  A    between atoms: _266  and  _267
REMARK  111  A    between atoms: _267  and  _268
REMARK  112  A    between atoms: _268  and  _269
REMARK  113  A    between atoms: _278  and  _280
REMARK  114  A    between atoms: _280  and  _281
REMARK  115  A    between atoms: _280  and  _283
REMARK  116  A    between atoms: _283  and  _284
REMARK  117  A    between atoms: _289  and  _291
REMARK  118  A    between atoms: _291  and  _292
REMARK  119  A    between atoms: _291  and  _294
REMARK  120  A    between atoms: _294  and  _295
REMARK  121  A    between atoms: _295  and  _296
REMARK  122  A    between atoms: _296  and  _297
REMARK  123  A    between atoms: _306  and  _308
REMARK  124  A    between atoms: _308  and  _309
REMARK  125  A    between atoms: _308  and  _311
REMARK  126  A    between atoms: _311  and  _312
REMARK  127  A    between atoms: _315  and  _317
REMARK  128  A    between atoms: _317  and  _318
REMARK  129  A    between atoms: _317  and  _320
REMARK  130  A    between atoms: _320  and  _321
REMARK  131  A    between atoms: _324  and  _326
REMARK  132  A    between atoms: _326  and  _327
REMARK  133  A    between atoms: _326  and  _329
REMARK  134  A    between atoms: _329  and  _330
REMARK  135  A    between atoms: _333  and  _335
REMARK  136  A    between atoms: _335  and  _336
REMARK  137  A    between atoms: _335  and  _338
REMARK  138  A    between atoms: _338  and  _339
REMARK  139  A    between atoms: _342  and  _344
REMARK  140  A    between atoms: _344  and  _345
REMARK  141  A    between atoms: _347  and  _349
REMARK  142  A    between atoms: _349  and  _350
REMARK  143  A    between atoms: _353  and  _355
REMARK  144  A    between atoms: _355  and  _356
REMARK  145  A    between atoms: _355  and  _358
REMARK  146  A    between atoms: _358  and  _359
REMARK  147  A    between atoms: _362  and  _364
REMARK  148  A    between atoms: _364  and  _365
REMARK  149  A    between atoms: _364  and  _367
REMARK  150  A    between atoms: _367  and  _368
REMARK  151  A    between atoms: _371  and  _373
REMARK  152  A    between atoms: _373  and  _374
REMARK  153  A    between atoms: _373  and  _376
REMARK  154  A    between atoms: _376  and  _377
REMARK  155  A    between atoms: _380  and  _382
REMARK  156  A    between atoms: _382  and  _383
REMARK  157  A    between atoms: _382  and  _385
REMARK  158  A    between atoms: _388  and  _390
REMARK  159  A    between atoms: _390  and  _391
REMARK  160  A    between atoms: _390  and  _393
REMARK  161  A    between atoms: _393  and  _394
REMARK  162  A    between atoms: _394  and  _395
REMARK  163  A    between atoms: _397  and  _399
REMARK  164  A    between atoms: _399  and  _400
REMARK  165  A    between atoms: _399  and  _402
REMARK  166  A    between atoms: _402  and  _403
REMARK  167  A    between atoms: _406  and  _408
REMARK  168  A    between atoms: _408  and  _409
REMARK  169  A    between atoms: _411  and  _413
REMARK  170  A    between atoms: _413  and  _414
REMARK  171  A    between atoms: _416  and  _418
REMARK  172  A    between atoms: _418  and  _419
REMARK  173  A    between atoms: _418  and  _421
REMARK  174  A    between atoms: _421  and  _422
REMARK  175  A    between atoms: _425  and  _427
REMARK  176  A    between atoms: _427  and  _428
REMARK  177  A    between atoms: _430  and  _432
REMARK  178  A    between atoms: _432  and  _433
REMARK  179  A    between atoms: _435  and  _437
REMARK  180  A    between atoms: _437  and  _438
REMARK  181  A    between atoms: _437  and  _440
REMARK  182  A    between atoms: _440  and  _441
REMARK  183  A    between atoms: _447  and  _449
REMARK  184  A    between atoms: _449  and  _450
REMARK  185  A    between atoms: _449  and  _452
REMARK  186  A    between atoms: _452  and  _453
REMARK  187  A    between atoms: _456  and  _458
REMARK  188  A    between atoms: _458  and  _459
REMARK  189  A    between atoms: _458  and  _461
REMARK  190  A    between atoms: _464  and  _466
REMARK  191  A    between atoms: _466  and  _467
REMARK  192  A    between atoms: _466  and  _469
REMARK  193  A    between atoms: _469  and  _470
REMARK  194  A    between atoms: _473  and  _475
REMARK  195  A    between atoms: _475  and  _476
REMARK  196  A    between atoms: _475  and  _478
REMARK  197  A    between atoms: _478  and  _479
REMARK  198  A    between atoms: _483  and  _484
REMARK  199  A    between atoms: _489  and  _491
REMARK  200  A    between atoms: _491  and  _492
REMARK  201  A    between atoms: _495  and  _497
REMARK  202  A    between atoms: _497  and  _498
REMARK  203  A    between atoms: _497  and  _500
REMARK  204  A    between atoms: _500  and  _501
REMARK  205  A    between atoms: _506  and  _508
REMARK  206  A    between atoms: _508  and  _509
REMARK  207  A    between atoms: _508  and  _511
REMARK  208  A    between atoms: _511  and  _512
REMARK  209  A    between atoms: _515  and  _517
REMARK  210  A    between atoms: _517  and  _518
REMARK  211  A    between atoms: _517  and  _520
REMARK  212  A    between atoms: _520  and  _521
REMARK  213  A    between atoms: _524  and  _526
REMARK  214  A    between atoms: _526  and  _527
REMARK  215  A    between atoms: _529  and  _531
REMARK  216  A    between atoms: _531  and  _532
REMARK  217  A    between atoms: _531  and  _534
REMARK  218  A    between atoms: _534  and  _535
REMARK  219  A    between atoms: _535  and  _536
REMARK  220  A    between atoms: _536  and  _537
REMARK  221  A    between atoms: _546  and  _548
REMARK  222  A    between atoms: _548  and  _549
REMARK  223  A    between atoms: _548  and  _551
REMARK  224  A    between atoms: _551  and  _552
REMARK                            x       y       z     vdW  Elec       q    Type
REMARK                         _______ _______ _______ _____ _____    ______ ____
ROOT
ATOM      1  O   HOH     1      25.805  36.141  21.425  0.00  0.00    +0.000 OA
ENDROOT
TORSDOF 0
REMARK  Name = ../refined-set-2016/2nmz/2nmz_pocket.pdb
REMARK  224 active torsions:
REMARK  status: ('A' for Active; 'I' for Inactive)
REMARK    1  A    between atoms: _1  and  _3
REMARK    2  A    between atoms: _3  and  _4
REMARK    3  A    between atoms: _3  and  _6
REMARK    4  A    between atoms: _6  and  _7
REMARK    5  A    between atoms: _7  and  _8
REMARK    6  A    between atoms: _8  and  _9
REMARK    7  A    between atoms: _18  and  _20
REMARK    8  A    between atoms: _20  and  _21
REMARK    9  A    between atoms: _20  and  _23
REMARK   10  A    between atoms: _23  and  _24
REMARK   11  A    between atoms: _27  and  _29
REMARK   12  A    between atoms: _29  and  _30
REMARK   13  A    between atoms: _29  and  _32
REMARK   14  A    between atoms: _32  and  _33
REMARK   15  A    between atoms: _36  and  _38
REMARK   16  A    between atoms: _38  and  _39
REMARK   17  A    between atoms: _38  and  _41
REMARK   18  A    between atoms: _41  and  _42
REMARK   19  A    between atoms: _45  and  _47
REMARK   20  A    between atoms: _47  and  _48
REMARK   21  A    between atoms: _47  and  _50
REMARK   22  A    between atoms: _50  and  _51
REMARK   23  A    between atoms: _54  and  _56
REMARK   24  A    between atoms: _56  and  _57
REMARK   25  A    between atoms: _59  and  _61
REMARK   26  A    between atoms: _61  and  _62
REMARK   27  A    between atoms: _65  and  _67
REMARK   28  A    between atoms: _67  and  _68
REMARK   29  A    between atoms: _67  and  _70
REMARK   30  A    between atoms: _70  and  _71
REMARK   31  A    between atoms: _74  and  _76
REMARK   32  A    between atoms: _76  and  _77
REMARK   33  A    between atoms: _76  and  _79
REMARK   34  A    between atoms: _79  and  _80
REMARK   35  A    between atoms: _83  and  _85
REMARK   36  A    between atoms: _85  and  _86
REMARK   37  A    between atoms: _85  and  _88
REMARK   38  A    between atoms: _88  and  _89
REMARK   39  A    between atoms: _92  and  _94
REMARK   40  A    between atoms: _94  and  _95
REMARK   41  A    between atoms: _94  and  _97
REMARK   42  A    between atoms: _100  and  _102
REMARK   43  A    between atoms: _102  and  _103
REMARK   44  A    between atoms: _102  and  _105
REMARK   45  A    between atoms: _105  and  _106
REMARK   46  A    between atoms: _106  and  _107
REMARK   47  A    between atoms: _107  and  _108
REMARK   48  A    between atoms: _108  and  _109
REMARK   49  A    between atoms: _113  and  _115
REMARK   50  A    between atoms: _115  and  _116
REMARK   51  A    between atoms: _115  and  _118
REMARK   52  A    between atoms: _118  and  _119
REMARK   53  A    between atoms: _119  and  _120
REMARK   54  A    between atoms: _122  and  _124
REMARK   55  A    between atoms: _124  and  _125
REMARK   56  A    between atoms: _124  and  _127
REMARK   57  A    between atoms: _127  and  _128
REMARK   58  A    between atoms: _131  and  _133
REMARK   59  A    between atoms: _133  and  _134
REMARK   60  A    between atoms: _136  and  _138
REMARK   61  A    between atoms: _138  and  _139
REMARK   62  A    between atoms: _141  and  _143
REMARK   63  A    between atoms: _143  and  _144
REMARK   64  A    between atoms: _143  and  _146
REMARK   65  A    between atoms: _146  and  _147
REMARK   66  A    between atoms: _150  and  _152
REMARK   67  A    between atoms: _152  and  _153
REMARK   68  A    between atoms: _155  and  _157
REMARK   69  A    between atoms: _157  and  _158
REMARK   70  A    between atoms: _160  and  _162
REMARK   71  A    between atoms: _162  and  _163
REMARK   72  A    between atoms: _162  and  _165
REMARK   73  A    between atoms: _165  and  _166
REMARK   74  A    between atoms: _172  and  _174
REMARK   75  A    between atoms: _174  and  _175
REMARK   76  A    between atoms: _174  and  _177
REMARK   77  A    between atoms: _177  and  _178
REMARK   78  A    between atoms: _181  and  _183
REMARK   79  A    between atoms: _183  and  _184
REMARK   80  A    between atoms: _183  and  _186
REMARK   81  A    between atoms: _189  and  _191
REMARK   82  A    between atoms: _191  and  _192
REMARK   83  A    between atoms: _191  and  _194
REMARK   84  A    between atoms: _194  and  _195
REMARK   85  A    between atoms: _199  and  _200
REMARK   86  A    between atoms: _205  and  _207
REMARK   87  A    between atoms: _207  and  _208
REMARK   88  A    between atoms: _207  and  _210
REMARK   89  A    between atoms: _210  and  _211
REMARK   90  A    between atoms: _215  and  _216
REMARK   91  A    between atoms: _221  and  _223
REMARK   92  A    between atoms: _223  and  _224
REMARK   93  A    between atoms: _227  and  _229
REMARK   94  A    between atoms: _229  and  _230
REMARK   95  A    between atoms: _229  and  _232
REMARK   96  A    between atoms: _232  and  _233
REMARK   97  A    between atoms: _238  and  _240
REMARK   98  A    between atoms: _240  and  _241
REMARK   99  A    between atoms: _240  and  _243
REMARK  100  A    between atoms: _243  and  _244
REMARK  101  A    between atoms: _247  and  _249
REMARK  102  A    between atoms: _249  and  _250
REMARK  103  A    between atoms: _249  and  _252
REMARK  104  A    between atoms: _252  and  _253
REMARK  105  A    between atoms: _256  and  _258
REMARK  106  A    between atoms: _258  and  _259
REMARK  107  A    between atoms: _261  and  _263
REMARK  108  A    between atoms: _263  and  _264
REMARK  109  A    between atoms: _263  and  _266
REMARK  110  A    between atoms: _266  and  _267
REMARK  111  A    between atoms: _267  and  _268
REMARK  112  A    between atoms: _268  and  _269
REMARK  113  A    between atoms: _278  and  _280
REMARK  114  A    between atoms: _280  and  _281
REMARK  115  A    between atoms: _280  and  _283
REMARK  116  A    between atoms: _283  and  _284
REMARK  117  A    between atoms: _289  and  _291
REMARK  118  A    between atoms: _291  and  _292
REMARK  119  A    between atoms: _291  and  _294
REMARK  120  A    between atoms: _294  and  _295
REMARK  121  A    between atoms: _295  and  _296
REMARK  122  A    between atoms: _296  and  _297
REMARK  123  A    between atoms: _306  and  _308
REMARK  124  A    between atoms: _308  and  _309
REMARK  125  A    between atoms: _308  and  _311
REMARK  126  A    between atoms: _311  and  _312
REMARK  127  A    between atoms: _315  and  _317
REMARK  128  A    between atoms: _317  and  _318
REMARK  129  A    between atoms: _317  and  _320
REMARK  130  A    between atoms: _320  and  _321
REMARK  131  A    between atoms: _324  and  _326
REMARK  132  A    between atoms: _326  and  _327
REMARK  133  A    between atoms: _326  and  _329
REMARK  134  A    between atoms: _329  and  _330
REMARK  135  A    between atoms: _333  and  _335
REMARK  136  A    between atoms: _335  and  _336
REMARK  137  A    between atoms: _335  and  _338
REMARK  138  A    between atoms: _338  and  _339
REMARK  139  A    between atoms: _342  and  _344
REMARK  140  A    between atoms: _344  and  _345
REMARK  141  A    between atoms: _347  and  _349
REMARK  142  A    between atoms: _349  and  _350
REMARK  143  A    between atoms: _353  and  _355
REMARK  144  A    between atoms: _355  and  _356
REMARK  145  A    between atoms: _355  and  _358
REMARK  146  A    between atoms: _358  and  _359
REMARK  147  A    between atoms: _362  and  _364
REMARK  148  A    between atoms: _364  and  _365
REMARK  149  A    between atoms: _364  and  _367
REMARK  150  A    between atoms: _367  and  _368
REMARK  151  A    between atoms: _371  and  _373
REMARK  152  A    between atoms: _373  and  _374
REMARK  153  A    between atoms: _373  and  _376
REMARK  154  A    between atoms: _376  and  _377
REMARK  155  A    between atoms: _380  and  _382
REMARK  156  A    between atoms: _382  and  _383
REMARK  157  A    between atoms: _382  and  _385
REMARK  158  A    between atoms: _388  and  _390
REMARK  159  A    between atoms: _390  and  _391
REMARK  160  A    between atoms: _390  and  _393
REMARK  161  A    between atoms: _393  and  _394
REMARK  162  A    between atoms: _394  and  _395
REMARK  163  A    between atoms: _397  and  _399
REMARK  164  A    between atoms: _399  and  _400
REMARK  165  A    between atoms: _399  and  _402
REMARK  166  A    between atoms: _402  and  _403
REMARK  167  A    between atoms: _406  and  _408
REMARK  168  A    between atoms: _408  and  _409
REMARK  169  A    between atoms: _411  and  _413
REMARK  170  A    between atoms: _413  and  _414
REMARK  171  A    between atoms: _416  and  _418
REMARK  172  A    between atoms: _418  and  _419
REMARK  173  A    between atoms: _418  and  _421
REMARK  174  A    between atoms: _421  and  _422
REMARK  175  A    between atoms: _425  and  _427
REMARK  176  A    between atoms: _427  and  _428
REMARK  177  A    between atoms: _430  and  _432
REMARK  178  A    between atoms: _432  and  _433
REMARK  179  A    between atoms: _435  and  _437
REMARK  180  A    between atoms: _437  and  _438
REMARK  181  A    between atoms: _437  and  _440
REMARK  182  A    between atoms: _440  and  _441
REMARK  183  A    between atoms: _447  and  _449
REMARK  184  A    between atoms: _449  and  _450
REMARK  185  A    between atoms: _449  and  _452
REMARK  186  A    between atoms: _452  and  _453
REMARK  187  A    between atoms: _456  and  _458
REMARK  188  A    between atoms: _458  and  _459
REMARK  189  A    between atoms: _458  and  _461
REMARK  190  A    between atoms: _464  and  _466
REMARK  191  A    between atoms: _466  and  _467
REMARK  192  A    between atoms: _466  and  _469
REMARK  193  A    between atoms: _469  and  _470
REMARK  194  A    between atoms: _473  and  _475
REMARK  195  A    between atoms: _475  and  _476
REMARK  196  A    between atoms: _475  and  _478
REMARK  197  A    between atoms: _478  and  _479
REMARK  198  A    between atoms: _483  and  _484
REMARK  199  A    between atoms: _489  and  _491
REMARK  200  A    between atoms: _491  and  _492
REMARK  201  A    between atoms: _495  and  _497
REMARK  202  A    between atoms: _497  and  _498
REMARK  203  A    between atoms: _497  and  _500
REMARK  204  A    between atoms: _500  and  _501
REMARK  205  A    between atoms: _506  and  _508
REMARK  206  A    between atoms: _508  and  _509
REMARK  207  A    between atoms: _508  and  _511
REMARK  208  A    between atoms: _511  and  _512
REMARK  209  A    between atoms: _515  and  _517
REMARK  210  A    between atoms: _517  and  _518
REMARK  211  A    between atoms: _517  and  _520
REMARK  212  A    between atoms: _520  and  _521
REMARK  213  A    between atoms: _524  and  _526
REMARK  214  A    between atoms: _526  and  _527
REMARK  215  A    between atoms: _529  and  _531
REMARK  216  A    between atoms: _531  and  _532
REMARK  217  A    between atoms: _531  and  _534
REMARK  218  A    between atoms: _534  and  _535
REMARK  219  A    between atoms: _535  and  _536
REMARK  220  A    between atoms: _536  and  _537
REMARK  221  A    between atoms: _546  and  _548
REMARK  222  A    between atoms: _548  and  _549
REMARK  223  A    between atoms: _548  and  _551
REMARK  224  A    between atoms: _551  and  _552
REMARK                            x       y       z     vdW  Elec       q    Type
REMARK                         _______ _______ _______ _____ _____    ______ ____
ROOT
ATOM      1  O   HOH     1      15.621  33.783   5.710  0.00  0.00    +0.000 OA
ENDROOT
TORSDOF 0
REMARK  Name = ../refined-set-2016/2nmz/2nmz_pocket.pdb
REMARK  224 active torsions:
REMARK  status: ('A' for Active; 'I' for Inactive)
REMARK    1  A    between atoms: _1  and  _3
REMARK    2  A    between atoms: _3  and  _4
REMARK    3  A    between atoms: _3  and  _6
REMARK    4  A    between atoms: _6  and  _7
REMARK    5  A    between atoms: _7  and  _8
REMARK    6  A    between atoms: _8  and  _9
REMARK    7  A    between atoms: _18  and  _20
REMARK    8  A    between atoms: _20  and  _21
REMARK    9  A    between atoms: _20  and  _23
REMARK   10  A    between atoms: _23  and  _24
REMARK   11  A    between atoms: _27  and  _29
REMARK   12  A    between atoms: _29  and  _30
REMARK   13  A    between atoms: _29  and  _32
REMARK   14  A    between atoms: _32  and  _33
REMARK   15  A    between atoms: _36  and  _38
REMARK   16  A    between atoms: _38  and  _39
REMARK   17  A    between atoms: _38  and  _41
REMARK   18  A    between atoms: _41  and  _42
REMARK   19  A    between atoms: _45  and  _47
REMARK   20  A    between atoms: _47  and  _48
REMARK   21  A    between atoms: _47  and  _50
REMARK   22  A    between atoms: _50  and  _51
REMARK   23  A    between atoms: _54  and  _56
REMARK   24  A    between atoms: _56  and  _57
REMARK   25  A    between atoms: _59  and  _61
REMARK   26  A    between atoms: _61  and  _62
REMARK   27  A    between atoms: _65  and  _67
REMARK   28  A    between atoms: _67  and  _68
REMARK   29  A    between atoms: _67  and  _70
REMARK   30  A    between atoms: _70  and  _71
REMARK   31  A    between atoms: _74  and  _76
REMARK   32  A    between atoms: _76  and  _77
REMARK   33  A    between atoms: _76  and  _79
REMARK   34  A    between atoms: _79  and  _80
REMARK   35  A    between atoms: _83  and  _85
REMARK   36  A    between atoms: _85  and  _86
REMARK   37  A    between atoms: _85  and  _88
REMARK   38  A    between atoms: _88  and  _89
REMARK   39  A    between atoms: _92  and  _94
REMARK   40  A    between atoms: _94  and  _95
REMARK   41  A    between atoms: _94  and  _97
REMARK   42  A    between atoms: _100  and  _102
REMARK   43  A    between atoms: _102  and  _103
REMARK   44  A    between atoms: _102  and  _105
REMARK   45  A    between atoms: _105  and  _106
REMARK   46  A    between atoms: _106  and  _107
REMARK   47  A    between atoms: _107  and  _108
REMARK   48  A    between atoms: _108  and  _109
REMARK   49  A    between atoms: _113  and  _115
REMARK   50  A    between atoms: _115  and  _116
REMARK   51  A    between atoms: _115  and  _118
REMARK   52  A    between atoms: _118  and  _119
REMARK   53  A    between atoms: _119  and  _120
REMARK   54  A    between atoms: _122  and  _124
REMARK   55  A    between atoms: _124  and  _125
REMARK   56  A    between atoms: _124  and  _127
REMARK   57  A    between atoms: _127  and  _128
REMARK   58  A    between atoms: _131  and  _133
REMARK   59  A    between atoms: _133  and  _134
REMARK   60  A    between atoms: _136  and  _138
REMARK   61  A    between atoms: _138  and  _139
REMARK   62  A    between atoms: _141  and  _143
REMARK   63  A    between atoms: _143  and  _144
REMARK   64  A    between atoms: _143  and  _146
REMARK   65  A    between atoms: _146  and  _147
REMARK   66  A    between atoms: _150  and  _152
REMARK   67  A    between atoms: _152  and  _153
REMARK   68  A    between atoms: _155  and  _157
REMARK   69  A    between atoms: _157  and  _158
REMARK   70  A    between atoms: _160  and  _162
REMARK   71  A    between atoms: _162  and  _163
REMARK   72  A    between atoms: _162  and  _165
REMARK   73  A    between atoms: _165  and  _166
REMARK   74  A    between atoms: _172  and  _174
REMARK   75  A    between atoms: _174  and  _175
REMARK   76  A    between atoms: _174  and  _177
REMARK   77  A    between atoms: _177  and  _178
REMARK   78  A    between atoms: _181  and  _183
REMARK   79  A    between atoms: _183  and  _184
REMARK   80  A    between atoms: _183  and  _186
REMARK   81  A    between atoms: _189  and  _191
REMARK   82  A    between atoms: _191  and  _192
REMARK   83  A    between atoms: _191  and  _194
REMARK   84  A    between atoms: _194  and  _195
REMARK   85  A    between atoms: _199  and  _200
REMARK   86  A    between atoms: _205  and  _207
REMARK   87  A    between atoms: _207  and  _208
REMARK   88  A    between atoms: _207  and  _210
REMARK   89  A    between atoms: _210  and  _211
REMARK   90  A    between atoms: _215  and  _216
REMARK   91  A    between atoms: _221  and  _223
REMARK   92  A    between atoms: _223  and  _224
REMARK   93  A    between atoms: _227  and  _229
REMARK   94  A    between atoms: _229  and  _230
REMARK   95  A    between atoms: _229  and  _232
REMARK   96  A    between atoms: _232  and  _233
REMARK   97  A    between atoms: _238  and  _240
REMARK   98  A    between atoms: _240  and  _241
REMARK   99  A    between atoms: _240  and  _243
REMARK  100  A    between atoms: _243  and  _244
REMARK  101  A    between atoms: _247  and  _249
REMARK  102  A    between atoms: _249  and  _250
REMARK  103  A    between atoms: _249  and  _252
REMARK  104  A    between atoms: _252  and  _253
REMARK  105  A    between atoms: _256  and  _258
REMARK  106  A    between atoms: _258  and  _259
REMARK  107  A    between atoms: _261  and  _263
REMARK  108  A    between atoms: _263  and  _264
REMARK  109  A    between atoms: _263  and  _266
REMARK  110  A    between atoms: _266  and  _267
REMARK  111  A    between atoms: _267  and  _268
REMARK  112  A    between atoms: _268  and  _269
REMARK  113  A    between atoms: _278  and  _280
REMARK  114  A    between atoms: _280  and  _281
REMARK  115  A    between atoms: _280  and  _283
REMARK  116  A    between atoms: _283  and  _284
REMARK  117  A    between atoms: _289  and  _291
REMARK  118  A    between atoms: _291  and  _292
REMARK  119  A    between atoms: _291  and  _294
REMARK  120  A    between atoms: _294  and  _295
REMARK  121  A    between atoms: _295  and  _296
REMARK  122  A    between atoms: _296  and  _297
REMARK  123  A    between atoms: _306  and  _308
REMARK  124  A    between atoms: _308  and  _309
REMARK  125  A    between atoms: _308  and  _311
REMARK  126  A    between atoms: _311  and  _312
REMARK  127  A    between atoms: _315  and  _317
REMARK  128  A    between atoms: _317  and  _318
REMARK  129  A    between atoms: _317  and  _320
REMARK  130  A    between atoms: _320  and  _321
REMARK  131  A    between atoms: _324  and  _326
REMARK  132  A    between atoms: _326  and  _327
REMARK  133  A    between atoms: _326  and  _329
REMARK  134  A    between atoms: _329  and  _330
REMARK  135  A    between atoms: _333  and  _335
REMARK  136  A    between atoms: _335  and  _336
REMARK  137  A    between atoms: _335  and  _338
REMARK  138  A    between atoms: _338  and  _339
REMARK  139  A    between atoms: _342  and  _344
REMARK  140  A    between atoms: _344  and  _345
REMARK  141  A    between atoms: _347  and  _349
REMARK  142  A    between atoms: _349  and  _350
REMARK  143  A    between atoms: _353  and  _355
REMARK  144  A    between atoms: _355  and  _356
REMARK  145  A    between atoms: _355  and  _358
REMARK  146  A    between atoms: _358  and  _359
REMARK  147  A    between atoms: _362  and  _364
REMARK  148  A    between atoms: _364  and  _365
REMARK  149  A    between atoms: _364  and  _367
REMARK  150  A    between atoms: _367  and  _368
REMARK  151  A    between atoms: _371  and  _373
REMARK  152  A    between atoms: _373  and  _374
REMARK  153  A    between atoms: _373  and  _376
REMARK  154  A    between atoms: _376  and  _377
REMARK  155  A    between atoms: _380  and  _382
REMARK  156  A    between atoms: _382  and  _383
REMARK  157  A    between atoms: _382  and  _385
REMARK  158  A    between atoms: _388  and  _390
REMARK  159  A    between atoms: _390  and  _391
REMARK  160  A    between atoms: _390  and  _393
REMARK  161  A    between atoms: _393  and  _394
REMARK  162  A    between atoms: _394  and  _395
REMARK  163  A    between atoms: _397  and  _399
REMARK  164  A    between atoms: _399  and  _400
REMARK  165  A    between atoms: _399  and  _402
REMARK  166  A    between atoms: _402  and  _403
REMARK  167  A    between atoms: _406  and  _408
REMARK  168  A    between atoms: _408  and  _409
REMARK  169  A    between atoms: _411  and  _413
REMARK  170  A    between atoms: _413  and  _414
REMARK  171  A    between atoms: _416  and  _418
REMARK  172  A    between atoms: _418  and  _419
REMARK  173  A    between atoms: _418  and  _421
REMARK  174  A    between atoms: _421  and  _422
REMARK  175  A    between atoms: _425  and  _427
REMARK  176  A    between atoms: _427  and  _428
REMARK  177  A    between atoms: _430  and  _432
REMARK  178  A    between atoms: _432  and  _433
REMARK  179  A    between atoms: _435  and  _437
REMARK  180  A    between atoms: _437  and  _438
REMARK  181  A    between atoms: _437  and  _440
REMARK  182  A    between atoms: _440  and  _441
REMARK  183  A    between atoms: _447  and  _449
REMARK  184  A    between atoms: _449  and  _450
REMARK  185  A    between atoms: _449  and  _452
REMARK  186  A    between atoms: _452  and  _453
REMARK  187  A    between atoms: _456  and  _458
REMARK  188  A    between atoms: _458  and  _459
REMARK  189  A    between atoms: _458  and  _461
REMARK  190  A    between atoms: _464  and  _466
REMARK  191  A    between atoms: _466  and  _467
REMARK  192  A    between atoms: _466  and  _469
REMARK  193  A    between atoms: _469  and  _470
REMARK  194  A    between atoms: _473  and  _475
REMARK  195  A    between atoms: _475  and  _476
REMARK  196  A    between atoms: _475  and  _478
REMARK  197  A    between atoms: _478  and  _479
REMARK  198  A    between atoms: _483  and  _484
REMARK  199  A    between atoms: _489  and  _491
REMARK  200  A    between atoms: _491  and  _492
REMARK  201  A    between atoms: _495  and  _497
REMARK  202  A    between atoms: _497  and  _498
REMARK  203  A    between atoms: _497  and  _500
REMARK  204  A    between atoms: _500  and  _501
REMARK  205  A    between atoms: _506  and  _508
REMARK  206  A    between atoms: _508  and  _509
REMARK  207  A    between atoms: _508  and  _511
REMARK  208  A    between atoms: _511  and  _512
REMARK  209  A    between atoms: _515  and  _517
REMARK  210  A    between atoms: _517  and  _518
REMARK  211  A    between atoms: _517  and  _520
REMARK  212  A    between atoms: _520  and  _521
REMARK  213  A    between atoms: _524  and  _526
REMARK  214  A    between atoms: _526  and  _527
REMARK  215  A    between atoms: _529  and  _531
REMARK  216  A    between atoms: _531  and  _532
REMARK  217  A    between atoms: _531  and  _534
REMARK  218  A    between atoms: _534  and  _535
REMARK  219  A    between atoms: _535  and  _536
REMARK  220  A    between atoms: _536  and  _537
REMARK  221  A    between atoms: _546  and  _548
REMARK  222  A    between atoms: _548  and  _549
REMARK  223  A    between atoms: _548  and  _551
REMARK  224  A    between atoms: _551  and  _552
REMARK                            x       y       z     vdW  Elec       q    Type
REMARK                         _______ _______ _______ _____ _____    ______ ____
ROOT
ATOM      1  O   HOH     1      22.728  42.324  21.025  0.00  0.00    +0.000 OA
ENDROOT
TORSDOF 0
REMARK  Name = ../refined-set-2016/2nmz/2nmz_pocket.pdb
REMARK  224 active torsions:
REMARK  status: ('A' for Active; 'I' for Inactive)
REMARK    1  A    between atoms: _1  and  _3
REMARK    2  A    between atoms: _3  and  _4
REMARK    3  A    between atoms: _3  and  _6
REMARK    4  A    between atoms: _6  and  _7
REMARK    5  A    between atoms: _7  and  _8
REMARK    6  A    between atoms: _8  and  _9
REMARK    7  A    between atoms: _18  and  _20
REMARK    8  A    between atoms: _20  and  _21
REMARK    9  A    between atoms: _20  and  _23
REMARK   10  A    between atoms: _23  and  _24
REMARK   11  A    between atoms: _27  and  _29
REMARK   12  A    between atoms: _29  and  _30
REMARK   13  A    between atoms: _29  and  _32
REMARK   14  A    between atoms: _32  and  _33
REMARK   15  A    between atoms: _36  and  _38
REMARK   16  A    between atoms: _38  and  _39
REMARK   17  A    between atoms: _38  and  _41
REMARK   18  A    between atoms: _41  and  _42
REMARK   19  A    between atoms: _45  and  _47
REMARK   20  A    between atoms: _47  and  _48
REMARK   21  A    between atoms: _47  and  _50
REMARK   22  A    between atoms: _50  and  _51
REMARK   23  A    between atoms: _54  and  _56
REMARK   24  A    between atoms: _56  and  _57
REMARK   25  A    between atoms: _59  and  _61
REMARK   26  A    between atoms: _61  and  _62
REMARK   27  A    between atoms: _65  and  _67
REMARK   28  A    between atoms: _67  and  _68
REMARK   29  A    between atoms: _67  and  _70
REMARK   30  A    between atoms: _70  and  _71
REMARK   31  A    between atoms: _74  and  _76
REMARK   32  A    between atoms: _76  and  _77
REMARK   33  A    between atoms: _76  and  _79
REMARK   34  A    between atoms: _79  and  _80
REMARK   35  A    between atoms: _83  and  _85
REMARK   36  A    between atoms: _85  and  _86
REMARK   37  A    between atoms: _85  and  _88
REMARK   38  A    between atoms: _88  and  _89
REMARK   39  A    between atoms: _92  and  _94
REMARK   40  A    between atoms: _94  and  _95
REMARK   41  A    between atoms: _94  and  _97
REMARK   42  A    between atoms: _100  and  _102
REMARK   43  A    between atoms: _102  and  _103
REMARK   44  A    between atoms: _102  and  _105
REMARK   45  A    between atoms: _105  and  _106
REMARK   46  A    between atoms: _106  and  _107
REMARK   47  A    between atoms: _107  and  _108
REMARK   48  A    between atoms: _108  and  _109
REMARK   49  A    between atoms: _113  and  _115
REMARK   50  A    between atoms: _115  and  _116
REMARK   51  A    between atoms: _115  and  _118
REMARK   52  A    between atoms: _118  and  _119
REMARK   53  A    between atoms: _119  and  _120
REMARK   54  A    between atoms: _122  and  _124
REMARK   55  A    between atoms: _124  and  _125
REMARK   56  A    between atoms: _124  and  _127
REMARK   57  A    between atoms: _127  and  _128
REMARK   58  A    between atoms: _131  and  _133
REMARK   59  A    between atoms: _133  and  _134
REMARK   60  A    between atoms: _136  and  _138
REMARK   61  A    between atoms: _138  and  _139
REMARK   62  A    between atoms: _141  and  _143
REMARK   63  A    between atoms: _143  and  _144
REMARK   64  A    between atoms: _143  and  _146
REMARK   65  A    between atoms: _146  and  _147
REMARK   66  A    between atoms: _150  and  _152
REMARK   67  A    between atoms: _152  and  _153
REMARK   68  A    between atoms: _155  and  _157
REMARK   69  A    between atoms: _157  and  _158
REMARK   70  A    between atoms: _160  and  _162
REMARK   71  A    between atoms: _162  and  _163
REMARK   72  A    between atoms: _162  and  _165
REMARK   73  A    between atoms: _165  and  _166
REMARK   74  A    between atoms: _172  and  _174
REMARK   75  A    between atoms: _174  and  _175
REMARK   76  A    between atoms: _174  and  _177
REMARK   77  A    between atoms: _177  and  _178
REMARK   78  A    between atoms: _181  and  _183
REMARK   79  A    between atoms: _183  and  _184
REMARK   80  A    between atoms: _183  and  _186
REMARK   81  A    between atoms: _189  and  _191
REMARK   82  A    between atoms: _191  and  _192
REMARK   83  A    between atoms: _191  and  _194
REMARK   84  A    between atoms: _194  and  _195
REMARK   85  A    between atoms: _199  and  _200
REMARK   86  A    between atoms: _205  and  _207
REMARK   87  A    between atoms: _207  and  _208
REMARK   88  A    between atoms: _207  and  _210
REMARK   89  A    between atoms: _210  and  _211
REMARK   90  A    between atoms: _215  and  _216
REMARK   91  A    between atoms: _221  and  _223
REMARK   92  A    between atoms: _223  and  _224
REMARK   93  A    between atoms: _227  and  _229
REMARK   94  A    between atoms: _229  and  _230
REMARK   95  A    between atoms: _229  and  _232
REMARK   96  A    between atoms: _232  and  _233
REMARK   97  A    between atoms: _238  and  _240
REMARK   98  A    between atoms: _240  and  _241
REMARK   99  A    between atoms: _240  and  _243
REMARK  100  A    between atoms: _243  and  _244
REMARK  101  A    between atoms: _247  and  _249
REMARK  102  A    between atoms: _249  and  _250
REMARK  103  A    between atoms: _249  and  _252
REMARK  104  A    between atoms: _252  and  _253
REMARK  105  A    between atoms: _256  and  _258
REMARK  106  A    between atoms: _258  and  _259
REMARK  107  A    between atoms: _261  and  _263
REMARK  108  A    between atoms: _263  and  _264
REMARK  109  A    between atoms: _263  and  _266
REMARK  110  A    between atoms: _266  and  _267
REMARK  111  A    between atoms: _267  and  _268
REMARK  112  A    between atoms: _268  and  _269
REMARK  113  A    between atoms: _278  and  _280
REMARK  114  A    between atoms: _280  and  _281
REMARK  115  A    between atoms: _280  and  _283
REMARK  116  A    between atoms: _283  and  _284
REMARK  117  A    between atoms: _289  and  _291
REMARK  118  A    between atoms: _291  and  _292
REMARK  119  A    between atoms: _291  and  _294
REMARK  120  A    between atoms: _294  and  _295
REMARK  121  A    between atoms: _295  and  _296
REMARK  122  A    between atoms: _296  and  _297
REMARK  123  A    between atoms: _306  and  _308
REMARK  124  A    between atoms: _308  and  _309
REMARK  125  A    between atoms: _308  and  _311
REMARK  126  A    between atoms: _311  and  _312
REMARK  127  A    between atoms: _315  and  _317
REMARK  128  A    between atoms: _317  and  _318
REMARK  129  A    between atoms: _317  and  _320
REMARK  130  A    between atoms: _320  and  _321
REMARK  131  A    between atoms: _324  and  _326
REMARK  132  A    between atoms: _326  and  _327
REMARK  133  A    between atoms: _326  and  _329
REMARK  134  A    between atoms: _329  and  _330
REMARK  135  A    between atoms: _333  and  _335
REMARK  136  A    between atoms: _335  and  _336
REMARK  137  A    between atoms: _335  and  _338
REMARK  138  A    between atoms: _338  and  _339
REMARK  139  A    between atoms: _342  and  _344
REMARK  140  A    between atoms: _344  and  _345
REMARK  141  A    between atoms: _347  and  _349
REMARK  142  A    between atoms: _349  and  _350
REMARK  143  A    between atoms: _353  and  _355
REMARK  144  A    between atoms: _355  and  _356
REMARK  145  A    between atoms: _355  and  _358
REMARK  146  A    between atoms: _358  and  _359
REMARK  147  A    between atoms: _362  and  _364
REMARK  148  A    between atoms: _364  and  _365
REMARK  149  A    between atoms: _364  and  _367
REMARK  150  A    between atoms: _367  and  _368
REMARK  151  A    between atoms: _371  and  _373
REMARK  152  A    between atoms: _373  and  _374
REMARK  153  A    between atoms: _373  and  _376
REMARK  154  A    between atoms: _376  and  _377
REMARK  155  A    between atoms: _380  and  _382
REMARK  156  A    between atoms: _382  and  _383
REMARK  157  A    between atoms: _382  and  _385
REMARK  158  A    between atoms: _388  and  _390
REMARK  159  A    between atoms: _390  and  _391
REMARK  160  A    between atoms: _390  and  _393
REMARK  161  A    between atoms: _393  and  _394
REMARK  162  A    between atoms: _394  and  _395
REMARK  163  A    between atoms: _397  and  _399
REMARK  164  A    between atoms: _399  and  _400
REMARK  165  A    between atoms: _399  and  _402
REMARK  166  A    between atoms: _402  and  _403
REMARK  167  A    between atoms: _406  and  _408
REMARK  168  A    between atoms: _408  and  _409
REMARK  169  A    between atoms: _411  and  _413
REMARK  170  A    between atoms: _413  and  _414
REMARK  171  A    between atoms: _416  and  _418
REMARK  172  A    between atoms: _418  and  _419
REMARK  173  A    between atoms: _418  and  _421
REMARK  174  A    between atoms: _421  and  _422
REMARK  175  A    between atoms: _425  and  _427
REMARK  176  A    between atoms: _427  and  _428
REMARK  177  A    between atoms: _430  and  _432
REMARK  178  A    between atoms: _432  and  _433
REMARK  179  A    between atoms: _435  and  _437
REMARK  180  A    between atoms: _437  and  _438
REMARK  181  A    between atoms: _437  and  _440
REMARK  182  A    between atoms: _440  and  _441
REMARK  183  A    between atoms: _447  and  _449
REMARK  184  A    between atoms: _449  and  _450
REMARK  185  A    between atoms: _449  and  _452
REMARK  186  A    between atoms: _452  and  _453
REMARK  187  A    between atoms: _456  and  _458
REMARK  188  A    between atoms: _458  and  _459
REMARK  189  A    between atoms: _458  and  _461
REMARK  190  A    between atoms: _464  and  _466
REMARK  191  A    between atoms: _466  and  _467
REMARK  192  A    between atoms: _466  and  _469
REMARK  193  A    between atoms: _469  and  _470
REMARK  194  A    between atoms: _473  and  _475
REMARK  195  A    between atoms: _475  and  _476
REMARK  196  A    between atoms: _475  and  _478
REMARK  197  A    between atoms: _478  and  _479
REMARK  198  A    between atoms: _483  and  _484
REMARK  199  A    between atoms: _489  and  _491
REMARK  200  A    between atoms: _491  and  _492
REMARK  201  A    between atoms: _495  and  _497
REMARK  202  A    between atoms: _497  and  _498
REMARK  203  A    between atoms: _497  and  _500
REMARK  204  A    between atoms: _500  and  _501
REMARK  205  A    between atoms: _506  and  _508
REMARK  206  A    between atoms: _508  and  _509
REMARK  207  A    between atoms: _508  and  _511
REMARK  208  A    between atoms: _511  and  _512
REMARK  209  A    between atoms: _515  and  _517
REMARK  210  A    between atoms: _517  and  _518
REMARK  211  A    between atoms: _517  and  _520
REMARK  212  A    between atoms: _520  and  _521
REMARK  213  A    between atoms: _524  and  _526
REMARK  214  A    between atoms: _526  and  _527
REMARK  215  A    between atoms: _529  and  _531
REMARK  216  A    between atoms: _531  and  _532
REMARK  217  A    between atoms: _531  and  _534
REMARK  218  A    between atoms: _534  and  _535
REMARK  219  A    between atoms: _535  and  _536
REMARK  220  A    between atoms: _536  and  _537
REMARK  221  A    between atoms: _546  and  _548
REMARK  222  A    between atoms: _548  and  _549
REMARK  223  A    between atoms: _548  and  _551
REMARK  224  A    between atoms: _551  and  _552
REMARK                            x       y       z     vdW  Elec       q    Type
REMARK                         _______ _______ _______ _____ _____    ______ ____
ROOT
ATOM      1  O   HOH     1      25.762  38.343  23.684  0.00  0.00    +0.000 OA
ENDROOT
TORSDOF 0
REMARK  Name = ../refined-set-2016/2nmz/2nmz_pocket.pdb
REMARK  224 active torsions:
REMARK  status: ('A' for Active; 'I' for Inactive)
REMARK    1  A    between atoms: _1  and  _3
REMARK    2  A    between atoms: _3  and  _4
REMARK    3  A    between atoms: _3  and  _6
REMARK    4  A    between atoms: _6  and  _7
REMARK    5  A    between atoms: _7  and  _8
REMARK    6  A    between atoms: _8  and  _9
REMARK    7  A    between atoms: _18  and  _20
REMARK    8  A    between atoms: _20  and  _21
REMARK    9  A    between atoms: _20  and  _23
REMARK   10  A    between atoms: _23  and  _24
REMARK   11  A    between atoms: _27  and  _29
REMARK   12  A    between atoms: _29  and  _30
REMARK   13  A    between atoms: _29  and  _32
REMARK   14  A    between atoms: _32  and  _33
REMARK   15  A    between atoms: _36  and  _38
REMARK   16  A    between atoms: _38  and  _39
REMARK   17  A    between atoms: _38  and  _41
REMARK   18  A    between atoms: _41  and  _42
REMARK   19  A    between atoms: _45  and  _47
REMARK   20  A    between atoms: _47  and  _48
REMARK   21  A    between atoms: _47  and  _50
REMARK   22  A    between atoms: _50  and  _51
REMARK   23  A    between atoms: _54  and  _56
REMARK   24  A    between atoms: _56  and  _57
REMARK   25  A    between atoms: _59  and  _61
REMARK   26  A    between atoms: _61  and  _62
REMARK   27  A    between atoms: _65  and  _67
REMARK   28  A    between atoms: _67  and  _68
REMARK   29  A    between atoms: _67  and  _70
REMARK   30  A    between atoms: _70  and  _71
REMARK   31  A    between atoms: _74  and  _76
REMARK   32  A    between atoms: _76  and  _77
REMARK   33  A    between atoms: _76  and  _79
REMARK   34  A    between atoms: _79  and  _80
REMARK   35  A    between atoms: _83  and  _85
REMARK   36  A    between atoms: _85  and  _86
REMARK   37  A    between atoms: _85  and  _88
REMARK   38  A    between atoms: _88  and  _89
REMARK   39  A    between atoms: _92  and  _94
REMARK   40  A    between atoms: _94  and  _95
REMARK   41  A    between atoms: _94  and  _97
REMARK   42  A    between atoms: _100  and  _102
REMARK   43  A    between atoms: _102  and  _103
REMARK   44  A    between atoms: _102  and  _105
REMARK   45  A    between atoms: _105  and  _106
REMARK   46  A    between atoms: _106  and  _107
REMARK   47  A    between atoms: _107  and  _108
REMARK   48  A    between atoms: _108  and  _109
REMARK   49  A    between atoms: _113  and  _115
REMARK   50  A    between atoms: _115  and  _116
REMARK   51  A    between atoms: _115  and  _118
REMARK   52  A    between atoms: _118  and  _119
REMARK   53  A    between atoms: _119  and  _120
REMARK   54  A    between atoms: _122  and  _124
REMARK   55  A    between atoms: _124  and  _125
REMARK   56  A    between atoms: _124  and  _127
REMARK   57  A    between atoms: _127  and  _128
REMARK   58  A    between atoms: _131  and  _133
REMARK   59  A    between atoms: _133  and  _134
REMARK   60  A    between atoms: _136  and  _138
REMARK   61  A    between atoms: _138  and  _139
REMARK   62  A    between atoms: _141  and  _143
REMARK   63  A    between atoms: _143  and  _144
REMARK   64  A    between atoms: _143  and  _146
REMARK   65  A    between atoms: _146  and  _147
REMARK   66  A    between atoms: _150  and  _152
REMARK   67  A    between atoms: _152  and  _153
REMARK   68  A    between atoms: _155  and  _157
REMARK   69  A    between atoms: _157  and  _158
REMARK   70  A    between atoms: _160  and  _162
REMARK   71  A    between atoms: _162  and  _163
REMARK   72  A    between atoms: _162  and  _165
REMARK   73  A    between atoms: _165  and  _166
REMARK   74  A    between atoms: _172  and  _174
REMARK   75  A    between atoms: _174  and  _175
REMARK   76  A    between atoms: _174  and  _177
REMARK   77  A    between atoms: _177  and  _178
REMARK   78  A    between atoms: _181  and  _183
REMARK   79  A    between atoms: _183  and  _184
REMARK   80  A    between atoms: _183  and  _186
REMARK   81  A    between atoms: _189  and  _191
REMARK   82  A    between atoms: _191  and  _192
REMARK   83  A    between atoms: _191  and  _194
REMARK   84  A    between atoms: _194  and  _195
REMARK   85  A    between atoms: _199  and  _200
REMARK   86  A    between atoms: _205  and  _207
REMARK   87  A    between atoms: _207  and  _208
REMARK   88  A    between atoms: _207  and  _210
REMARK   89  A    between atoms: _210  and  _211
REMARK   90  A    between atoms: _215  and  _216
REMARK   91  A    between atoms: _221  and  _223
REMARK   92  A    between atoms: _223  and  _224
REMARK   93  A    between atoms: _227  and  _229
REMARK   94  A    between atoms: _229  and  _230
REMARK   95  A    between atoms: _229  and  _232
REMARK   96  A    between atoms: _232  and  _233
REMARK   97  A    between atoms: _238  and  _240
REMARK   98  A    between atoms: _240  and  _241
REMARK   99  A    between atoms: _240  and  _243
REMARK  100  A    between atoms: _243  and  _244
REMARK  101  A    between atoms: _247  and  _249
REMARK  102  A    between atoms: _249  and  _250
REMARK  103  A    between atoms: _249  and  _252
REMARK  104  A    between atoms: _252  and  _253
REMARK  105  A    between atoms: _256  and  _258
REMARK  106  A    between atoms: _258  and  _259
REMARK  107  A    between atoms: _261  and  _263
REMARK  108  A    between atoms: _263  and  _264
REMARK  109  A    between atoms: _263  and  _266
REMARK  110  A    between atoms: _266  and  _267
REMARK  111  A    between atoms: _267  and  _268
REMARK  112  A    between atoms: _268  and  _269
REMARK  113  A    between atoms: _278  and  _280
REMARK  114  A    between atoms: _280  and  _281
REMARK  115  A    between atoms: _280  and  _283
REMARK  116  A    between atoms: _283  and  _284
REMARK  117  A    between atoms: _289  and  _291
REMARK  118  A    between atoms: _291  and  _292
REMARK  119  A    between atoms: _291  and  _294
REMARK  120  A    between atoms: _294  and  _295
REMARK  121  A    between atoms: _295  and  _296
REMARK  122  A    between atoms: _296  and  _297
REMARK  123  A    between atoms: _306  and  _308
REMARK  124  A    between atoms: _308  and  _309
REMARK  125  A    between atoms: _308  and  _311
REMARK  126  A    between atoms: _311  and  _312
REMARK  127  A    between atoms: _315  and  _317
REMARK  128  A    between atoms: _317  and  _318
REMARK  129  A    between atoms: _317  and  _320
REMARK  130  A    between atoms: _320  and  _321
REMARK  131  A    between atoms: _324  and  _326
REMARK  132  A    between atoms: _326  and  _327
REMARK  133  A    between atoms: _326  and  _329
REMARK  134  A    between atoms: _329  and  _330
REMARK  135  A    between atoms: _333  and  _335
REMARK  136  A    between atoms: _335  and  _336
REMARK  137  A    between atoms: _335  and  _338
REMARK  138  A    between atoms: _338  and  _339
REMARK  139  A    between atoms: _342  and  _344
REMARK  140  A    between atoms: _344  and  _345
REMARK  141  A    between atoms: _347  and  _349
REMARK  142  A    between atoms: _349  and  _350
REMARK  143  A    between atoms: _353  and  _355
REMARK  144  A    between atoms: _355  and  _356
REMARK  145  A    between atoms: _355  and  _358
REMARK  146  A    between atoms: _358  and  _359
REMARK  147  A    between atoms: _362  and  _364
REMARK  148  A    between atoms: _364  and  _365
REMARK  149  A    between atoms: _364  and  _367
REMARK  150  A    between atoms: _367  and  _368
REMARK  151  A    between atoms: _371  and  _373
REMARK  152  A    between atoms: _373  and  _374
REMARK  153  A    between atoms: _373  and  _376
REMARK  154  A    between atoms: _376  and  _377
REMARK  155  A    between atoms: _380  and  _382
REMARK  156  A    between atoms: _382  and  _383
REMARK  157  A    between atoms: _382  and  _385
REMARK  158  A    between atoms: _388  and  _390
REMARK  159  A    between atoms: _390  and  _391
REMARK  160  A    between atoms: _390  and  _393
REMARK  161  A    between atoms: _393  and  _394
REMARK  162  A    between atoms: _394  and  _395
REMARK  163  A    between atoms: _397  and  _399
REMARK  164  A    between atoms: _399  and  _400
REMARK  165  A    between atoms: _399  and  _402
REMARK  166  A    between atoms: _402  and  _403
REMARK  167  A    between atoms: _406  and  _408
REMARK  168  A    between atoms: _408  and  _409
REMARK  169  A    between atoms: _411  and  _413
REMARK  170  A    between atoms: _413  and  _414
REMARK  171  A    between atoms: _416  and  _418
REMARK  172  A    between atoms: _418  and  _419
REMARK  173  A    between atoms: _418  and  _421
REMARK  174  A    between atoms: _421  and  _422
REMARK  175  A    between atoms: _425  and  _427
REMARK  176  A    between atoms: _427  and  _428
REMARK  177  A    between atoms: _430  and  _432
REMARK  178  A    between atoms: _432  and  _433
REMARK  179  A    between atoms: _435  and  _437
REMARK  180  A    between atoms: _437  and  _438
REMARK  181  A    between atoms: _437  and  _440
REMARK  182  A    between atoms: _440  and  _441
REMARK  183  A    between atoms: _447  and  _449
REMARK  184  A    between atoms: _449  and  _450
REMARK  185  A    between atoms: _449  and  _452
REMARK  186  A    between atoms: _452  and  _453
REMARK  187  A    between atoms: _456  and  _458
REMARK  188  A    between atoms: _458  and  _459
REMARK  189  A    between atoms: _458  and  _461
REMARK  190  A    between atoms: _464  and  _466
REMARK  191  A    between atoms: _466  and  _467
REMARK  192  A    between atoms: _466  and  _469
REMARK  193  A    between atoms: _469  and  _470
REMARK  194  A    between atoms: _473  and  _475
REMARK  195  A    between atoms: _475  and  _476
REMARK  196  A    between atoms: _475  and  _478
REMARK  197  A    between atoms: _478  and  _479
REMARK  198  A    between atoms: _483  and  _484
REMARK  199  A    between atoms: _489  and  _491
REMARK  200  A    between atoms: _491  and  _492
REMARK  201  A    between atoms: _495  and  _497
REMARK  202  A    between atoms: _497  and  _498
REMARK  203  A    between atoms: _497  and  _500
REMARK  204  A    between atoms: _500  and  _501
REMARK  205  A    between atoms: _506  and  _508
REMARK  206  A    between atoms: _508  and  _509
REMARK  207  A    between atoms: _508  and  _511
REMARK  208  A    between atoms: _511  and  _512
REMARK  209  A    between atoms: _515  and  _517
REMARK  210  A    between atoms: _517  and  _518
REMARK  211  A    between atoms: _517  and  _520
REMARK  212  A    between atoms: _520  and  _521
REMARK  213  A    between atoms: _524  and  _526
REMARK  214  A    between atoms: _526  and  _527
REMARK  215  A    between atoms: _529  and  _531
REMARK  216  A    between atoms: _531  and  _532
REMARK  217  A    between atoms: _531  and  _534
REMARK  218  A    between atoms: _534  and  _535
REMARK  219  A    between atoms: _535  and  _536
REMARK  220  A    between atoms: _536  and  _537
REMARK  221  A    between atoms: _546  and  _548
REMARK  222  A    between atoms: _548  and  _549
REMARK  223  A    between atoms: _548  and  _551
REMARK  224  A    between atoms: _551  and  _552
REMARK                            x       y       z     vdW  Elec       q    Type
REMARK                         _______ _______ _______ _____ _____    ______ ____
ROOT
ATOM      1  O   HOH     1      23.746  21.646   8.115  0.00  0.00    +0.000 OA
ENDROOT
TORSDOF 0
REMARK  Name = ../refined-set-2016/2nmz/2nmz_pocket.pdb
REMARK  224 active torsions:
REMARK  status: ('A' for Active; 'I' for Inactive)
REMARK    1  A    between atoms: _1  and  _3
REMARK    2  A    between atoms: _3  and  _4
REMARK    3  A    between atoms: _3  and  _6
REMARK    4  A    between atoms: _6  and  _7
REMARK    5  A    between atoms: _7  and  _8
REMARK    6  A    between atoms: _8  and  _9
REMARK    7  A    between atoms: _18  and  _20
REMARK    8  A    between atoms: _20  and  _21
REMARK    9  A    between atoms: _20  and  _23
REMARK   10  A    between atoms: _23  and  _24
REMARK   11  A    between atoms: _27  and  _29
REMARK   12  A    between atoms: _29  and  _30
REMARK   13  A    between atoms: _29  and  _32
REMARK   14  A    between atoms: _32  and  _33
REMARK   15  A    between atoms: _36  and  _38
REMARK   16  A    between atoms: _38  and  _39
REMARK   17  A    between atoms: _38  and  _41
REMARK   18  A    between atoms: _41  and  _42
REMARK   19  A    between atoms: _45  and  _47
REMARK   20  A    between atoms: _47  and  _48
REMARK   21  A    between atoms: _47  and  _50
REMARK   22  A    between atoms: _50  and  _51
REMARK   23  A    between atoms: _54  and  _56
REMARK   24  A    between atoms: _56  and  _57
REMARK   25  A    between atoms: _59  and  _61
REMARK   26  A    between atoms: _61  and  _62
REMARK   27  A    between atoms: _65  and  _67
REMARK   28  A    between atoms: _67  and  _68
REMARK   29  A    between atoms: _67  and  _70
REMARK   30  A    between atoms: _70  and  _71
REMARK   31  A    between atoms: _74  and  _76
REMARK   32  A    between atoms: _76  and  _77
REMARK   33  A    between atoms: _76  and  _79
REMARK   34  A    between atoms: _79  and  _80
REMARK   35  A    between atoms: _83  and  _85
REMARK   36  A    between atoms: _85  and  _86
REMARK   37  A    between atoms: _85  and  _88
REMARK   38  A    between atoms: _88  and  _89
REMARK   39  A    between atoms: _92  and  _94
REMARK   40  A    between atoms: _94  and  _95
REMARK   41  A    between atoms: _94  and  _97
REMARK   42  A    between atoms: _100  and  _102
REMARK   43  A    between atoms: _102  and  _103
REMARK   44  A    between atoms: _102  and  _105
REMARK   45  A    between atoms: _105  and  _106
REMARK   46  A    between atoms: _106  and  _107
REMARK   47  A    between atoms: _107  and  _108
REMARK   48  A    between atoms: _108  and  _109
REMARK   49  A    between atoms: _113  and  _115
REMARK   50  A    between atoms: _115  and  _116
REMARK   51  A    between atoms: _115  and  _118
REMARK   52  A    between atoms: _118  and  _119
REMARK   53  A    between atoms: _119  and  _120
REMARK   54  A    between atoms: _122  and  _124
REMARK   55  A    between atoms: _124  and  _125
REMARK   56  A    between atoms: _124  and  _127
REMARK   57  A    between atoms: _127  and  _128
REMARK   58  A    between atoms: _131  and  _133
REMARK   59  A    between atoms: _133  and  _134
REMARK   60  A    between atoms: _136  and  _138
REMARK   61  A    between atoms: _138  and  _139
REMARK   62  A    between atoms: _141  and  _143
REMARK   63  A    between atoms: _143  and  _144
REMARK   64  A    between atoms: _143  and  _146
REMARK   65  A    between atoms: _146  and  _147
REMARK   66  A    between atoms: _150  and  _152
REMARK   67  A    between atoms: _152  and  _153
REMARK   68  A    between atoms: _155  and  _157
REMARK   69  A    between atoms: _157  and  _158
REMARK   70  A    between atoms: _160  and  _162
REMARK   71  A    between atoms: _162  and  _163
REMARK   72  A    between atoms: _162  and  _165
REMARK   73  A    between atoms: _165  and  _166
REMARK   74  A    between atoms: _172  and  _174
REMARK   75  A    between atoms: _174  and  _175
REMARK   76  A    between atoms: _174  and  _177
REMARK   77  A    between atoms: _177  and  _178
REMARK   78  A    between atoms: _181  and  _183
REMARK   79  A    between atoms: _183  and  _184
REMARK   80  A    between atoms: _183  and  _186
REMARK   81  A    between atoms: _189  and  _191
REMARK   82  A    between atoms: _191  and  _192
REMARK   83  A    between atoms: _191  and  _194
REMARK   84  A    between atoms: _194  and  _195
REMARK   85  A    between atoms: _199  and  _200
REMARK   86  A    between atoms: _205  and  _207
REMARK   87  A    between atoms: _207  and  _208
REMARK   88  A    between atoms: _207  and  _210
REMARK   89  A    between atoms: _210  and  _211
REMARK   90  A    between atoms: _215  and  _216
REMARK   91  A    between atoms: _221  and  _223
REMARK   92  A    between atoms: _223  and  _224
REMARK   93  A    between atoms: _227  and  _229
REMARK   94  A    between atoms: _229  and  _230
REMARK   95  A    between atoms: _229  and  _232
REMARK   96  A    between atoms: _232  and  _233
REMARK   97  A    between atoms: _238  and  _240
REMARK   98  A    between atoms: _240  and  _241
REMARK   99  A    between atoms: _240  and  _243
REMARK  100  A    between atoms: _243  and  _244
REMARK  101  A    between atoms: _247  and  _249
REMARK  102  A    between atoms: _249  and  _250
REMARK  103  A    between atoms: _249  and  _252
REMARK  104  A    between atoms: _252  and  _253
REMARK  105  A    between atoms: _256  and  _258
REMARK  106  A    between atoms: _258  and  _259
REMARK  107  A    between atoms: _261  and  _263
REMARK  108  A    between atoms: _263  and  _264
REMARK  109  A    between atoms: _263  and  _266
REMARK  110  A    between atoms: _266  and  _267
REMARK  111  A    between atoms: _267  and  _268
REMARK  112  A    between atoms: _268  and  _269
REMARK  113  A    between atoms: _278  and  _280
REMARK  114  A    between atoms: _280  and  _281
REMARK  115  A    between atoms: _280  and  _283
REMARK  116  A    between atoms: _283  and  _284
REMARK  117  A    between atoms: _289  and  _291
REMARK  118  A    between atoms: _291  and  _292
REMARK  119  A    between atoms: _291  and  _294
REMARK  120  A    between atoms: _294  and  _295
REMARK  121  A    between atoms: _295  and  _296
REMARK  122  A    between atoms: _296  and  _297
REMARK  123  A    between atoms: _306  and  _308
REMARK  124  A    between atoms: _308  and  _309
REMARK  125  A    between atoms: _308  and  _311
REMARK  126  A    between atoms: _311  and  _312
REMARK  127  A    between atoms: _315  and  _317
REMARK  128  A    between atoms: _317  and  _318
REMARK  129  A    between atoms: _317  and  _320
REMARK  130  A    between atoms: _320  and  _321
REMARK  131  A    between atoms: _324  and  _326
REMARK  132  A    between atoms: _326  and  _327
REMARK  133  A    between atoms: _326  and  _329
REMARK  134  A    between atoms: _329  and  _330
REMARK  135  A    between atoms: _333  and  _335
REMARK  136  A    between atoms: _335  and  _336
REMARK  137  A    between atoms: _335  and  _338
REMARK  138  A    between atoms: _338  and  _339
REMARK  139  A    between atoms: _342  and  _344
REMARK  140  A    between atoms: _344  and  _345
REMARK  141  A    between atoms: _347  and  _349
REMARK  142  A    between atoms: _349  and  _350
REMARK  143  A    between atoms: _353  and  _355
REMARK  144  A    between atoms: _355  and  _356
REMARK  145  A    between atoms: _355  and  _358
REMARK  146  A    between atoms: _358  and  _359
REMARK  147  A    between atoms: _362  and  _364
REMARK  148  A    between atoms: _364  and  _365
REMARK  149  A    between atoms: _364  and  _367
REMARK  150  A    between atoms: _367  and  _368
REMARK  151  A    between atoms: _371  and  _373
REMARK  152  A    between atoms: _373  and  _374
REMARK  153  A    between atoms: _373  and  _376
REMARK  154  A    between atoms: _376  and  _377
REMARK  155  A    between atoms: _380  and  _382
REMARK  156  A    between atoms: _382  and  _383
REMARK  157  A    between atoms: _382  and  _385
REMARK  158  A    between atoms: _388  and  _390
REMARK  159  A    between atoms: _390  and  _391
REMARK  160  A    between atoms: _390  and  _393
REMARK  161  A    between atoms: _393  and  _394
REMARK  162  A    between atoms: _394  and  _395
REMARK  163  A    between atoms: _397  and  _399
REMARK  164  A    between atoms: _399  and  _400
REMARK  165  A    between atoms: _399  and  _402
REMARK  166  A    between atoms: _402  and  _403
REMARK  167  A    between atoms: _406  and  _408
REMARK  168  A    between atoms: _408  and  _409
REMARK  169  A    between atoms: _411  and  _413
REMARK  170  A    between atoms: _413  and  _414
REMARK  171  A    between atoms: _416  and  _418
REMARK  172  A    between atoms: _418  and  _419
REMARK  173  A    between atoms: _418  and  _421
REMARK  174  A    between atoms: _421  and  _422
REMARK  175  A    between atoms: _425  and  _427
REMARK  176  A    between atoms: _427  and  _428
REMARK  177  A    between atoms: _430  and  _432
REMARK  178  A    between atoms: _432  and  _433
REMARK  179  A    between atoms: _435  and  _437
REMARK  180  A    between atoms: _437  and  _438
REMARK  181  A    between atoms: _437  and  _440
REMARK  182  A    between atoms: _440  and  _441
REMARK  183  A    between atoms: _447  and  _449
REMARK  184  A    between atoms: _449  and  _450
REMARK  185  A    between atoms: _449  and  _452
REMARK  186  A    between atoms: _452  and  _453
REMARK  187  A    between atoms: _456  and  _458
REMARK  188  A    between atoms: _458  and  _459
REMARK  189  A    between atoms: _458  and  _461
REMARK  190  A    between atoms: _464  and  _466
REMARK  191  A    between atoms: _466  and  _467
REMARK  192  A    between atoms: _466  and  _469
REMARK  193  A    between atoms: _469  and  _470
REMARK  194  A    between atoms: _473  and  _475
REMARK  195  A    between atoms: _475  and  _476
REMARK  196  A    between atoms: _475  and  _478
REMARK  197  A    between atoms: _478  and  _479
REMARK  198  A    between atoms: _483  and  _484
REMARK  199  A    between atoms: _489  and  _491
REMARK  200  A    between atoms: _491  and  _492
REMARK  201  A    between atoms: _495  and  _497
REMARK  202  A    between atoms: _497  and  _498
REMARK  203  A    between atoms: _497  and  _500
REMARK  204  A    between atoms: _500  and  _501
REMARK  205  A    between atoms: _506  and  _508
REMARK  206  A    between atoms: _508  and  _509
REMARK  207  A    between atoms: _508  and  _511
REMARK  208  A    between atoms: _511  and  _512
REMARK  209  A    between atoms: _515  and  _517
REMARK  210  A    between atoms: _517  and  _518
REMARK  211  A    between atoms: _517  and  _520
REMARK  212  A    between atoms: _520  and  _521
REMARK  213  A    between atoms: _524  and  _526
REMARK  214  A    between atoms: _526  and  _527
REMARK  215  A    between atoms: _529  and  _531
REMARK  216  A    between atoms: _531  and  _532
REMARK  217  A    between atoms: _531  and  _534
REMARK  218  A    between atoms: _534  and  _535
REMARK  219  A    between atoms: _535  and  _536
REMARK  220  A    between atoms: _536  and  _537
REMARK  221  A    between atoms: _546  and  _548
REMARK  222  A    between atoms: _548  and  _549
REMARK  223  A    between atoms: _548  and  _551
REMARK  224  A    between atoms: _551  and  _552
REMARK                            x       y       z     vdW  Elec       q    Type
REMARK                         _______ _______ _______ _____ _____    ______ ____
ROOT
ATOM      1  O   HOH     1      29.986  21.163  11.167  0.00  0.00    +0.000 OA
ENDROOT
TORSDOF 0
REMARK  Name = ../refined-set-2016/2nmz/2nmz_pocket.pdb
REMARK  224 active torsions:
REMARK  status: ('A' for Active; 'I' for Inactive)
REMARK    1  A    between atoms: _1  and  _3
REMARK    2  A    between atoms: _3  and  _4
REMARK    3  A    between atoms: _3  and  _6
REMARK    4  A    between atoms: _6  and  _7
REMARK    5  A    between atoms: _7  and  _8
REMARK    6  A    between atoms: _8  and  _9
REMARK    7  A    between atoms: _18  and  _20
REMARK    8  A    between atoms: _20  and  _21
REMARK    9  A    between atoms: _20  and  _23
REMARK   10  A    between atoms: _23  and  _24
REMARK   11  A    between atoms: _27  and  _29
REMARK   12  A    between atoms: _29  and  _30
REMARK   13  A    between atoms: _29  and  _32
REMARK   14  A    between atoms: _32  and  _33
REMARK   15  A    between atoms: _36  and  _38
REMARK   16  A    between atoms: _38  and  _39
REMARK   17  A    between atoms: _38  and  _41
REMARK   18  A    between atoms: _41  and  _42
REMARK   19  A    between atoms: _45  and  _47
REMARK   20  A    between atoms: _47  and  _48
REMARK   21  A    between atoms: _47  and  _50
REMARK   22  A    between atoms: _50  and  _51
REMARK   23  A    between atoms: _54  and  _56
REMARK   24  A    between atoms: _56  and  _57
REMARK   25  A    between atoms: _59  and  _61
REMARK   26  A    between atoms: _61  and  _62
REMARK   27  A    between atoms: _65  and  _67
REMARK   28  A    between atoms: _67  and  _68
REMARK   29  A    between atoms: _67  and  _70
REMARK   30  A    between atoms: _70  and  _71
REMARK   31  A    between atoms: _74  and  _76
REMARK   32  A    between atoms: _76  and  _77
REMARK   33  A    between atoms: _76  and  _79
REMARK   34  A    between atoms: _79  and  _80
REMARK   35  A    between atoms: _83  and  _85
REMARK   36  A    between atoms: _85  and  _86
REMARK   37  A    between atoms: _85  and  _88
REMARK   38  A    between atoms: _88  and  _89
REMARK   39  A    between atoms: _92  and  _94
REMARK   40  A    between atoms: _94  and  _95
REMARK   41  A    between atoms: _94  and  _97
REMARK   42  A    between atoms: _100  and  _102
REMARK   43  A    between atoms: _102  and  _103
REMARK   44  A    between atoms: _102  and  _105
REMARK   45  A    between atoms: _105  and  _106
REMARK   46  A    between atoms: _106  and  _107
REMARK   47  A    between atoms: _107  and  _108
REMARK   48  A    between atoms: _108  and  _109
REMARK   49  A    between atoms: _113  and  _115
REMARK   50  A    between atoms: _115  and  _116
REMARK   51  A    between atoms: _115  and  _118
REMARK   52  A    between atoms: _118  and  _119
REMARK   53  A    between atoms: _119  and  _120
REMARK   54  A    between atoms: _122  and  _124
REMARK   55  A    between atoms: _124  and  _125
REMARK   56  A    between atoms: _124  and  _127
REMARK   57  A    between atoms: _127  and  _128
REMARK   58  A    between atoms: _131  and  _133
REMARK   59  A    between atoms: _133  and  _134
REMARK   60  A    between atoms: _136  and  _138
REMARK   61  A    between atoms: _138  and  _139
REMARK   62  A    between atoms: _141  and  _143
REMARK   63  A    between atoms: _143  and  _144
REMARK   64  A    between atoms: _143  and  _146
REMARK   65  A    between atoms: _146  and  _147
REMARK   66  A    between atoms: _150  and  _152
REMARK   67  A    between atoms: _152  and  _153
REMARK   68  A    between atoms: _155  and  _157
REMARK   69  A    between atoms: _157  and  _158
REMARK   70  A    between atoms: _160  and  _162
REMARK   71  A    between atoms: _162  and  _163
REMARK   72  A    between atoms: _162  and  _165
REMARK   73  A    between atoms: _165  and  _166
REMARK   74  A    between atoms: _172  and  _174
REMARK   75  A    between atoms: _174  and  _175
REMARK   76  A    between atoms: _174  and  _177
REMARK   77  A    between atoms: _177  and  _178
REMARK   78  A    between atoms: _181  and  _183
REMARK   79  A    between atoms: _183  and  _184
REMARK   80  A    between atoms: _183  and  _186
REMARK   81  A    between atoms: _189  and  _191
REMARK   82  A    between atoms: _191  and  _192
REMARK   83  A    between atoms: _191  and  _194
REMARK   84  A    between atoms: _194  and  _195
REMARK   85  A    between atoms: _199  and  _200
REMARK   86  A    between atoms: _205  and  _207
REMARK   87  A    between atoms: _207  and  _208
REMARK   88  A    between atoms: _207  and  _210
REMARK   89  A    between atoms: _210  and  _211
REMARK   90  A    between atoms: _215  and  _216
REMARK   91  A    between atoms: _221  and  _223
REMARK   92  A    between atoms: _223  and  _224
REMARK   93  A    between atoms: _227  and  _229
REMARK   94  A    between atoms: _229  and  _230
REMARK   95  A    between atoms: _229  and  _232
REMARK   96  A    between atoms: _232  and  _233
REMARK   97  A    between atoms: _238  and  _240
REMARK   98  A    between atoms: _240  and  _241
REMARK   99  A    between atoms: _240  and  _243
REMARK  100  A    between atoms: _243  and  _244
REMARK  101  A    between atoms: _247  and  _249
REMARK  102  A    between atoms: _249  and  _250
REMARK  103  A    between atoms: _249  and  _252
REMARK  104  A    between atoms: _252  and  _253
REMARK  105  A    between atoms: _256  and  _258
REMARK  106  A    between atoms: _258  and  _259
REMARK  107  A    between atoms: _261  and  _263
REMARK  108  A    between atoms: _263  and  _264
REMARK  109  A    between atoms: _263  and  _266
REMARK  110  A    between atoms: _266  and  _267
REMARK  111  A    between atoms: _267  and  _268
REMARK  112  A    between atoms: _268  and  _269
REMARK  113  A    between atoms: _278  and  _280
REMARK  114  A    between atoms: _280  and  _281
REMARK  115  A    between atoms: _280  and  _283
REMARK  116  A    between atoms: _283  and  _284
REMARK  117  A    between atoms: _289  and  _291
REMARK  118  A    between atoms: _291  and  _292
REMARK  119  A    between atoms: _291  and  _294
REMARK  120  A    between atoms: _294  and  _295
REMARK  121  A    between atoms: _295  and  _296
REMARK  122  A    between atoms: _296  and  _297
REMARK  123  A    between atoms: _306  and  _308
REMARK  124  A    between atoms: _308  and  _309
REMARK  125  A    between atoms: _308  and  _311
REMARK  126  A    between atoms: _311  and  _312
REMARK  127  A    between atoms: _315  and  _317
REMARK  128  A    between atoms: _317  and  _318
REMARK  129  A    between atoms: _317  and  _320
REMARK  130  A    between atoms: _320  and  _321
REMARK  131  A    between atoms: _324  and  _326
REMARK  132  A    between atoms: _326  and  _327
REMARK  133  A    between atoms: _326  and  _329
REMARK  134  A    between atoms: _329  and  _330
REMARK  135  A    between atoms: _333  and  _335
REMARK  136  A    between atoms: _335  and  _336
REMARK  137  A    between atoms: _335  and  _338
REMARK  138  A    between atoms: _338  and  _339
REMARK  139  A    between atoms: _342  and  _344
REMARK  140  A    between atoms: _344  and  _345
REMARK  141  A    between atoms: _347  and  _349
REMARK  142  A    between atoms: _349  and  _350
REMARK  143  A    between atoms: _353  and  _355
REMARK  144  A    between atoms: _355  and  _356
REMARK  145  A    between atoms: _355  and  _358
REMARK  146  A    between atoms: _358  and  _359
REMARK  147  A    between atoms: _362  and  _364
REMARK  148  A    between atoms: _364  and  _365
REMARK  149  A    between atoms: _364  and  _367
REMARK  150  A    between atoms: _367  and  _368
REMARK  151  A    between atoms: _371  and  _373
REMARK  152  A    between atoms: _373  and  _374
REMARK  153  A    between atoms: _373  and  _376
REMARK  154  A    between atoms: _376  and  _377
REMARK  155  A    between atoms: _380  and  _382
REMARK  156  A    between atoms: _382  and  _383
REMARK  157  A    between atoms: _382  and  _385
REMARK  158  A    between atoms: _388  and  _390
REMARK  159  A    between atoms: _390  and  _391
REMARK  160  A    between atoms: _390  and  _393
REMARK  161  A    between atoms: _393  and  _394
REMARK  162  A    between atoms: _394  and  _395
REMARK  163  A    between atoms: _397  and  _399
REMARK  164  A    between atoms: _399  and  _400
REMARK  165  A    between atoms: _399  and  _402
REMARK  166  A    between atoms: _402  and  _403
REMARK  167  A    between atoms: _406  and  _408
REMARK  168  A    between atoms: _408  and  _409
REMARK  169  A    between atoms: _411  and  _413
REMARK  170  A    between atoms: _413  and  _414
REMARK  171  A    between atoms: _416  and  _418
REMARK  172  A    between atoms: _418  and  _419
REMARK  173  A    between atoms: _418  and  _421
REMARK  174  A    between atoms: _421  and  _422
REMARK  175  A    between atoms: _425  and  _427
REMARK  176  A    between atoms: _427  and  _428
REMARK  177  A    between atoms: _430  and  _432
REMARK  178  A    between atoms: _432  and  _433
REMARK  179  A    between atoms: _435  and  _437
REMARK  180  A    between atoms: _437  and  _438
REMARK  181  A    between atoms: _437  and  _440
REMARK  182  A    between atoms: _440  and  _441
REMARK  183  A    between atoms: _447  and  _449
REMARK  184  A    between atoms: _449  and  _450
REMARK  185  A    between atoms: _449  and  _452
REMARK  186  A    between atoms: _452  and  _453
REMARK  187  A    between atoms: _456  and  _458
REMARK  188  A    between atoms: _458  and  _459
REMARK  189  A    between atoms: _458  and  _461
REMARK  190  A    between atoms: _464  and  _466
REMARK  191  A    between atoms: _466  and  _467
REMARK  192  A    between atoms: _466  and  _469
REMARK  193  A    between atoms: _469  and  _470
REMARK  194  A    between atoms: _473  and  _475
REMARK  195  A    between atoms: _475  and  _476
REMARK  196  A    between atoms: _475  and  _478
REMARK  197  A    between atoms: _478  and  _479
REMARK  198  A    between atoms: _483  and  _484
REMARK  199  A    between atoms: _489  and  _491
REMARK  200  A    between atoms: _491  and  _492
REMARK  201  A    between atoms: _495  and  _497
REMARK  202  A    between atoms: _497  and  _498
REMARK  203  A    between atoms: _497  and  _500
REMARK  204  A    between atoms: _500  and  _501
REMARK  205  A    between atoms: _506  and  _508
REMARK  206  A    between atoms: _508  and  _509
REMARK  207  A    between atoms: _508  and  _511
REMARK  208  A    between atoms: _511  and  _512
REMARK  209  A    between atoms: _515  and  _517
REMARK  210  A    between atoms: _517  and  _518
REMARK  211  A    between atoms: _517  and  _520
REMARK  212  A    between atoms: _520  and  _521
REMARK  213  A    between atoms: _524  and  _526
REMARK  214  A    between atoms: _526  and  _527
REMARK  215  A    between atoms: _529  and  _531
REMARK  216  A    between atoms: _531  and  _532
REMARK  217  A    between atoms: _531  and  _534
REMARK  218  A    between atoms: _534  and  _535
REMARK  219  A    between atoms: _535  and  _536
REMARK  220  A    between atoms: _536  and  _537
REMARK  221  A    between atoms: _546  and  _548
REMARK  222  A    between atoms: _548  and  _549
REMARK  223  A    between atoms: _548  and  _551
REMARK  224  A    between atoms: _551  and  _552
REMARK                            x       y       z     vdW  Elec       q    Type
REMARK                         _______ _______ _______ _____ _____    ______ ____
ROOT
ATOM      1  O   HOH     1      26.105  20.706   8.889  0.00  0.00    +0.000 OA
ENDROOT
TORSDOF 0
REMARK  Name = ../refined-set-2016/2nmz/2nmz_pocket.pdb
REMARK  224 active torsions:
REMARK  status: ('A' for Active; 'I' for Inactive)
REMARK    1  A    between atoms: _1  and  _3
REMARK    2  A    between atoms: _3  and  _4
REMARK    3  A    between atoms: _3  and  _6
REMARK    4  A    between atoms: _6  and  _7
REMARK    5  A    between atoms: _7  and  _8
REMARK    6  A    between atoms: _8  and  _9
REMARK    7  A    between atoms: _18  and  _20
REMARK    8  A    between atoms: _20  and  _21
REMARK    9  A    between atoms: _20  and  _23
REMARK   10  A    between atoms: _23  and  _24
REMARK   11  A    between atoms: _27  and  _29
REMARK   12  A    between atoms: _29  and  _30
REMARK   13  A    between atoms: _29  and  _32
REMARK   14  A    between atoms: _32  and  _33
REMARK   15  A    between atoms: _36  and  _38
REMARK   16  A    between atoms: _38  and  _39
REMARK   17  A    between atoms: _38  and  _41
REMARK   18  A    between atoms: _41  and  _42
REMARK   19  A    between atoms: _45  and  _47
REMARK   20  A    between atoms: _47  and  _48
REMARK   21  A    between atoms: _47  and  _50
REMARK   22  A    between atoms: _50  and  _51
REMARK   23  A    between atoms: _54  and  _56
REMARK   24  A    between atoms: _56  and  _57
REMARK   25  A    between atoms: _59  and  _61
REMARK   26  A    between atoms: _61  and  _62
REMARK   27  A    between atoms: _65  and  _67
REMARK   28  A    between atoms: _67  and  _68
REMARK   29  A    between atoms: _67  and  _70
REMARK   30  A    between atoms: _70  and  _71
REMARK   31  A    between atoms: _74  and  _76
REMARK   32  A    between atoms: _76  and  _77
REMARK   33  A    between atoms: _76  and  _79
REMARK   34  A    between atoms: _79  and  _80
REMARK   35  A    between atoms: _83  and  _85
REMARK   36  A    between atoms: _85  and  _86
REMARK   37  A    between atoms: _85  and  _88
REMARK   38  A    between atoms: _88  and  _89
REMARK   39  A    between atoms: _92  and  _94
REMARK   40  A    between atoms: _94  and  _95
REMARK   41  A    between atoms: _94  and  _97
REMARK   42  A    between atoms: _100  and  _102
REMARK   43  A    between atoms: _102  and  _103
REMARK   44  A    between atoms: _102  and  _105
REMARK   45  A    between atoms: _105  and  _106
REMARK   46  A    between atoms: _106  and  _107
REMARK   47  A    between atoms: _107  and  _108
REMARK   48  A    between atoms: _108  and  _109
REMARK   49  A    between atoms: _113  and  _115
REMARK   50  A    between atoms: _115  and  _116
REMARK   51  A    between atoms: _115  and  _118
REMARK   52  A    between atoms: _118  and  _119
REMARK   53  A    between atoms: _119  and  _120
REMARK   54  A    between atoms: _122  and  _124
REMARK   55  A    between atoms: _124  and  _125
REMARK   56  A    between atoms: _124  and  _127
REMARK   57  A    between atoms: _127  and  _128
REMARK   58  A    between atoms: _131  and  _133
REMARK   59  A    between atoms: _133  and  _134
REMARK   60  A    between atoms: _136  and  _138
REMARK   61  A    between atoms: _138  and  _139
REMARK   62  A    between atoms: _141  and  _143
REMARK   63  A    between atoms: _143  and  _144
REMARK   64  A    between atoms: _143  and  _146
REMARK   65  A    between atoms: _146  and  _147
REMARK   66  A    between atoms: _150  and  _152
REMARK   67  A    between atoms: _152  and  _153
REMARK   68  A    between atoms: _155  and  _157
REMARK   69  A    between atoms: _157  and  _158
REMARK   70  A    between atoms: _160  and  _162
REMARK   71  A    between atoms: _162  and  _163
REMARK   72  A    between atoms: _162  and  _165
REMARK   73  A    between atoms: _165  and  _166
REMARK   74  A    between atoms: _172  and  _174
REMARK   75  A    between atoms: _174  and  _175
REMARK   76  A    between atoms: _174  and  _177
REMARK   77  A    between atoms: _177  and  _178
REMARK   78  A    between atoms: _181  and  _183
REMARK   79  A    between atoms: _183  and  _184
REMARK   80  A    between atoms: _183  and  _186
REMARK   81  A    between atoms: _189  and  _191
REMARK   82  A    between atoms: _191  and  _192
REMARK   83  A    between atoms: _191  and  _194
REMARK   84  A    between atoms: _194  and  _195
REMARK   85  A    between atoms: _199  and  _200
REMARK   86  A    between atoms: _205  and  _207
REMARK   87  A    between atoms: _207  and  _208
REMARK   88  A    between atoms: _207  and  _210
REMARK   89  A    between atoms: _210  and  _211
REMARK   90  A    between atoms: _215  and  _216
REMARK   91  A    between atoms: _221  and  _223
REMARK   92  A    between atoms: _223  and  _224
REMARK   93  A    between atoms: _227  and  _229
REMARK   94  A    between atoms: _229  and  _230
REMARK   95  A    between atoms: _229  and  _232
REMARK   96  A    between atoms: _232  and  _233
REMARK   97  A    between atoms: _238  and  _240
REMARK   98  A    between atoms: _240  and  _241
REMARK   99  A    between atoms: _240  and  _243
REMARK  100  A    between atoms: _243  and  _244
REMARK  101  A    between atoms: _247  and  _249
REMARK  102  A    between atoms: _249  and  _250
REMARK  103  A    between atoms: _249  and  _252
REMARK  104  A    between atoms: _252  and  _253
REMARK  105  A    between atoms: _256  and  _258
REMARK  106  A    between atoms: _258  and  _259
REMARK  107  A    between atoms: _261  and  _263
REMARK  108  A    between atoms: _263  and  _264
REMARK  109  A    between atoms: _263  and  _266
REMARK  110  A    between atoms: _266  and  _267
REMARK  111  A    between atoms: _267  and  _268
REMARK  112  A    between atoms: _268  and  _269
REMARK  113  A    between atoms: _278  and  _280
REMARK  114  A    between atoms: _280  and  _281
REMARK  115  A    between atoms: _280  and  _283
REMARK  116  A    between atoms: _283  and  _284
REMARK  117  A    between atoms: _289  and  _291
REMARK  118  A    between atoms: _291  and  _292
REMARK  119  A    between atoms: _291  and  _294
REMARK  120  A    between atoms: _294  and  _295
REMARK  121  A    between atoms: _295  and  _296
REMARK  122  A    between atoms: _296  and  _297
REMARK  123  A    between atoms: _306  and  _308
REMARK  124  A    between atoms: _308  and  _309
REMARK  125  A    between atoms: _308  and  _311
REMARK  126  A    between atoms: _311  and  _312
REMARK  127  A    between atoms: _315  and  _317
REMARK  128  A    between atoms: _317  and  _318
REMARK  129  A    between atoms: _317  and  _320
REMARK  130  A    between atoms: _320  and  _321
REMARK  131  A    between atoms: _324  and  _326
REMARK  132  A    between atoms: _326  and  _327
REMARK  133  A    between atoms: _326  and  _329
REMARK  134  A    between atoms: _329  and  _330
REMARK  135  A    between atoms: _333  and  _335
REMARK  136  A    between atoms: _335  and  _336
REMARK  137  A    between atoms: _335  and  _338
REMARK  138  A    between atoms: _338  and  _339
REMARK  139  A    between atoms: _342  and  _344
REMARK  140  A    between atoms: _344  and  _345
REMARK  141  A    between atoms: _347  and  _349
REMARK  142  A    between atoms: _349  and  _350
REMARK  143  A    between atoms: _353  and  _355
REMARK  144  A    between atoms: _355  and  _356
REMARK  145  A    between atoms: _355  and  _358
REMARK  146  A    between atoms: _358  and  _359
REMARK  147  A    between atoms: _362  and  _364
REMARK  148  A    between atoms: _364  and  _365
REMARK  149  A    between atoms: _364  and  _367
REMARK  150  A    between atoms: _367  and  _368
REMARK  151  A    between atoms: _371  and  _373
REMARK  152  A    between atoms: _373  and  _374
REMARK  153  A    between atoms: _373  and  _376
REMARK  154  A    between atoms: _376  and  _377
REMARK  155  A    between atoms: _380  and  _382
REMARK  156  A    between atoms: _382  and  _383
REMARK  157  A    between atoms: _382  and  _385
REMARK  158  A    between atoms: _388  and  _390
REMARK  159  A    between atoms: _390  and  _391
REMARK  160  A    between atoms: _390  and  _393
REMARK  161  A    between atoms: _393  and  _394
REMARK  162  A    between atoms: _394  and  _395
REMARK  163  A    between atoms: _397  and  _399
REMARK  164  A    between atoms: _399  and  _400
REMARK  165  A    between atoms: _399  and  _402
REMARK  166  A    between atoms: _402  and  _403
REMARK  167  A    between atoms: _406  and  _408
REMARK  168  A    between atoms: _408  and  _409
REMARK  169  A    between atoms: _411  and  _413
REMARK  170  A    between atoms: _413  and  _414
REMARK  171  A    between atoms: _416  and  _418
REMARK  172  A    between atoms: _418  and  _419
REMARK  173  A    between atoms: _418  and  _421
REMARK  174  A    between atoms: _421  and  _422
REMARK  175  A    between atoms: _425  and  _427
REMARK  176  A    between atoms: _427  and  _428
REMARK  177  A    between atoms: _430  and  _432
REMARK  178  A    between atoms: _432  and  _433
REMARK  179  A    between atoms: _435  and  _437
REMARK  180  A    between atoms: _437  and  _438
REMARK  181  A    between atoms: _437  and  _440
REMARK  182  A    between atoms: _440  and  _441
REMARK  183  A    between atoms: _447  and  _449
REMARK  184  A    between atoms: _449  and  _450
REMARK  185  A    between atoms: _449  and  _452
REMARK  186  A    between atoms: _452  and  _453
REMARK  187  A    between atoms: _456  and  _458
REMARK  188  A    between atoms: _458  and  _459
REMARK  189  A    between atoms: _458  and  _461
REMARK  190  A    between atoms: _464  and  _466
REMARK  191  A    between atoms: _466  and  _467
REMARK  192  A    between atoms: _466  and  _469
REMARK  193  A    between atoms: _469  and  _470
REMARK  194  A    between atoms: _473  and  _475
REMARK  195  A    between atoms: _475  and  _476
REMARK  196  A    between atoms: _475  and  _478
REMARK  197  A    between atoms: _478  and  _479
REMARK  198  A    between atoms: _483  and  _484
REMARK  199  A    between atoms: _489  and  _491
REMARK  200  A    between atoms: _491  and  _492
REMARK  201  A    between atoms: _495  and  _497
REMARK  202  A    between atoms: _497  and  _498
REMARK  203  A    between atoms: _497  and  _500
REMARK  204  A    between atoms: _500  and  _501
REMARK  205  A    between atoms: _506  and  _508
REMARK  206  A    between atoms: _508  and  _509
REMARK  207  A    between atoms: _508  and  _511
REMARK  208  A    between atoms: _511  and  _512
REMARK  209  A    between atoms: _515  and  _517
REMARK  210  A    between atoms: _517  and  _518
REMARK  211  A    between atoms: _517  and  _520
REMARK  212  A    between atoms: _520  and  _521
REMARK  213  A    between atoms: _524  and  _526
REMARK  214  A    between atoms: _526  and  _527
REMARK  215  A    between atoms: _529  and  _531
REMARK  216  A    between atoms: _531  and  _532
REMARK  217  A    between atoms: _531  and  _534
REMARK  218  A    between atoms: _534  and  _535
REMARK  219  A    between atoms: _535  and  _536
REMARK  220  A    between atoms: _536  and  _537
REMARK  221  A    between atoms: _546  and  _548
REMARK  222  A    between atoms: _548  and  _549
REMARK  223  A    between atoms: _548  and  _551
REMARK  224  A    between atoms: _551  and  _552
REMARK                            x       y       z     vdW  Elec       q    Type
REMARK                         _______ _______ _______ _____ _____    ______ ____
ROOT
ATOM      1  O   HOH     1      18.805  30.158   5.538  0.00  0.00    +0.000 OA
ENDROOT
TORSDOF 0
REMARK  Name = ../refined-set-2016/2nmz/2nmz_pocket.pdb
REMARK  224 active torsions:
REMARK  status: ('A' for Active; 'I' for Inactive)
REMARK    1  A    between atoms: _1  and  _3
REMARK    2  A    between atoms: _3  and  _4
REMARK    3  A    between atoms: _3  and  _6
REMARK    4  A    between atoms: _6  and  _7
REMARK    5  A    between atoms: _7  and  _8
REMARK    6  A    between atoms: _8  and  _9
REMARK    7  A    between atoms: _18  and  _20
REMARK    8  A    between atoms: _20  and  _21
REMARK    9  A    between atoms: _20  and  _23
REMARK   10  A    between atoms: _23  and  _24
REMARK   11  A    between atoms: _27  and  _29
REMARK   12  A    between atoms: _29  and  _30
REMARK   13  A    between atoms: _29  and  _32
REMARK   14  A    between atoms: _32  and  _33
REMARK   15  A    between atoms: _36  and  _38
REMARK   16  A    between atoms: _38  and  _39
REMARK   17  A    between atoms: _38  and  _41
REMARK   18  A    between atoms: _41  and  _42
REMARK   19  A    between atoms: _45  and  _47
REMARK   20  A    between atoms: _47  and  _48
REMARK   21  A    between atoms: _47  and  _50
REMARK   22  A    between atoms: _50  and  _51
REMARK   23  A    between atoms: _54  and  _56
REMARK   24  A    between atoms: _56  and  _57
REMARK   25  A    between atoms: _59  and  _61
REMARK   26  A    between atoms: _61  and  _62
REMARK   27  A    between atoms: _65  and  _67
REMARK   28  A    between atoms: _67  and  _68
REMARK   29  A    between atoms: _67  and  _70
REMARK   30  A    between atoms: _70  and  _71
REMARK   31  A    between atoms: _74  and  _76
REMARK   32  A    between atoms: _76  and  _77
REMARK   33  A    between atoms: _76  and  _79
REMARK   34  A    between atoms: _79  and  _80
REMARK   35  A    between atoms: _83  and  _85
REMARK   36  A    between atoms: _85  and  _86
REMARK   37  A    between atoms: _85  and  _88
REMARK   38  A    between atoms: _88  and  _89
REMARK   39  A    between atoms: _92  and  _94
REMARK   40  A    between atoms: _94  and  _95
REMARK   41  A    between atoms: _94  and  _97
REMARK   42  A    between atoms: _100  and  _102
REMARK   43  A    between atoms: _102  and  _103
REMARK   44  A    between atoms: _102  and  _105
REMARK   45  A    between atoms: _105  and  _106
REMARK   46  A    between atoms: _106  and  _107
REMARK   47  A    between atoms: _107  and  _108
REMARK   48  A    between atoms: _108  and  _109
REMARK   49  A    between atoms: _113  and  _115
REMARK   50  A    between atoms: _115  and  _116
REMARK   51  A    between atoms: _115  and  _118
REMARK   52  A    between atoms: _118  and  _119
REMARK   53  A    between atoms: _119  and  _120
REMARK   54  A    between atoms: _122  and  _124
REMARK   55  A    between atoms: _124  and  _125
REMARK   56  A    between atoms: _124  and  _127
REMARK   57  A    between atoms: _127  and  _128
REMARK   58  A    between atoms: _131  and  _133
REMARK   59  A    between atoms: _133  and  _134
REMARK   60  A    between atoms: _136  and  _138
REMARK   61  A    between atoms: _138  and  _139
REMARK   62  A    between atoms: _141  and  _143
REMARK   63  A    between atoms: _143  and  _144
REMARK   64  A    between atoms: _143  and  _146
REMARK   65  A    between atoms: _146  and  _147
REMARK   66  A    between atoms: _150  and  _152
REMARK   67  A    between atoms: _152  and  _153
REMARK   68  A    between atoms: _155  and  _157
REMARK   69  A    between atoms: _157  and  _158
REMARK   70  A    between atoms: _160  and  _162
REMARK   71  A    between atoms: _162  and  _163
REMARK   72  A    between atoms: _162  and  _165
REMARK   73  A    between atoms: _165  and  _166
REMARK   74  A    between atoms: _172  and  _174
REMARK   75  A    between atoms: _174  and  _175
REMARK   76  A    between atoms: _174  and  _177
REMARK   77  A    between atoms: _177  and  _178
REMARK   78  A    between atoms: _181  and  _183
REMARK   79  A    between atoms: _183  and  _184
REMARK   80  A    between atoms: _183  and  _186
REMARK   81  A    between atoms: _189  and  _191
REMARK   82  A    between atoms: _191  and  _192
REMARK   83  A    between atoms: _191  and  _194
REMARK   84  A    between atoms: _194  and  _195
REMARK   85  A    between atoms: _199  and  _200
REMARK   86  A    between atoms: _205  and  _207
REMARK   87  A    between atoms: _207  and  _208
REMARK   88  A    between atoms: _207  and  _210
REMARK   89  A    between atoms: _210  and  _211
REMARK   90  A    between atoms: _215  and  _216
REMARK   91  A    between atoms: _221  and  _223
REMARK   92  A    between atoms: _223  and  _224
REMARK   93  A    between atoms: _227  and  _229
REMARK   94  A    between atoms: _229  and  _230
REMARK   95  A    between atoms: _229  and  _232
REMARK   96  A    between atoms: _232  and  _233
REMARK   97  A    between atoms: _238  and  _240
REMARK   98  A    between atoms: _240  and  _241
REMARK   99  A    between atoms: _240  and  _243
REMARK  100  A    between atoms: _243  and  _244
REMARK  101  A    between atoms: _247  and  _249
REMARK  102  A    between atoms: _249  and  _250
REMARK  103  A    between atoms: _249  and  _252
REMARK  104  A    between atoms: _252  and  _253
REMARK  105  A    between atoms: _256  and  _258
REMARK  106  A    between atoms: _258  and  _259
REMARK  107  A    between atoms: _261  and  _263
REMARK  108  A    between atoms: _263  and  _264
REMARK  109  A    between atoms: _263  and  _266
REMARK  110  A    between atoms: _266  and  _267
REMARK  111  A    between atoms: _267  and  _268
REMARK  112  A    between atoms: _268  and  _269
REMARK  113  A    between atoms: _278  and  _280
REMARK  114  A    between atoms: _280  and  _281
REMARK  115  A    between atoms: _280  and  _283
REMARK  116  A    between atoms: _283  and  _284
REMARK  117  A    between atoms: _289  and  _291
REMARK  118  A    between atoms: _291  and  _292
REMARK  119  A    between atoms: _291  and  _294
REMARK  120  A    between atoms: _294  and  _295
REMARK  121  A    between atoms: _295  and  _296
REMARK  122  A    between atoms: _296  and  _297
REMARK  123  A    between atoms: _306  and  _308
REMARK  124  A    between atoms: _308  and  _309
REMARK  125  A    between atoms: _308  and  _311
REMARK  126  A    between atoms: _311  and  _312
REMARK  127  A    between atoms: _315  and  _317
REMARK  128  A    between atoms: _317  and  _318
REMARK  129  A    between atoms: _317  and  _320
REMARK  130  A    between atoms: _320  and  _321
REMARK  131  A    between atoms: _324  and  _326
REMARK  132  A    between atoms: _326  and  _327
REMARK  133  A    between atoms: _326  and  _329
REMARK  134  A    between atoms: _329  and  _330
REMARK  135  A    between atoms: _333  and  _335
REMARK  136  A    between atoms: _335  and  _336
REMARK  137  A    between atoms: _335  and  _338
REMARK  138  A    between atoms: _338  and  _339
REMARK  139  A    between atoms: _342  and  _344
REMARK  140  A    between atoms: _344  and  _345
REMARK  141  A    between atoms: _347  and  _349
REMARK  142  A    between atoms: _349  and  _350
REMARK  143  A    between atoms: _353  and  _355
REMARK  144  A    between atoms: _355  and  _356
REMARK  145  A    between atoms: _355  and  _358
REMARK  146  A    between atoms: _358  and  _359
REMARK  147  A    between atoms: _362  and  _364
REMARK  148  A    between atoms: _364  and  _365
REMARK  149  A    between atoms: _364  and  _367
REMARK  150  A    between atoms: _367  and  _368
REMARK  151  A    between atoms: _371  and  _373
REMARK  152  A    between atoms: _373  and  _374
REMARK  153  A    between atoms: _373  and  _376
REMARK  154  A    between atoms: _376  and  _377
REMARK  155  A    between atoms: _380  and  _382
REMARK  156  A    between atoms: _382  and  _383
REMARK  157  A    between atoms: _382  and  _385
REMARK  158  A    between atoms: _388  and  _390
REMARK  159  A    between atoms: _390  and  _391
REMARK  160  A    between atoms: _390  and  _393
REMARK  161  A    between atoms: _393  and  _394
REMARK  162  A    between atoms: _394  and  _395
REMARK  163  A    between atoms: _397  and  _399
REMARK  164  A    between atoms: _399  and  _400
REMARK  165  A    between atoms: _399  and  _402
REMARK  166  A    between atoms: _402  and  _403
REMARK  167  A    between atoms: _406  and  _408
REMARK  168  A    between atoms: _408  and  _409
REMARK  169  A    between atoms: _411  and  _413
REMARK  170  A    between atoms: _413  and  _414
REMARK  171  A    between atoms: _416  and  _418
REMARK  172  A    between atoms: _418  and  _419
REMARK  173  A    between atoms: _418  and  _421
REMARK  174  A    between atoms: _421  and  _422
REMARK  175  A    between atoms: _425  and  _427
REMARK  176  A    between atoms: _427  and  _428
REMARK  177  A    between atoms: _430  and  _432
REMARK  178  A    between atoms: _432  and  _433
REMARK  179  A    between atoms: _435  and  _437
REMARK  180  A    between atoms: _437  and  _438
REMARK  181  A    between atoms: _437  and  _440
REMARK  182  A    between atoms: _440  and  _441
REMARK  183  A    between atoms: _447  and  _449
REMARK  184  A    between atoms: _449  and  _450
REMARK  185  A    between atoms: _449  and  _452
REMARK  186  A    between atoms: _452  and  _453
REMARK  187  A    between atoms: _456  and  _458
REMARK  188  A    between atoms: _458  and  _459
REMARK  189  A    between atoms: _458  and  _461
REMARK  190  A    between atoms: _464  and  _466
REMARK  191  A    between atoms: _466  and  _467
REMARK  192  A    between atoms: _466  and  _469
REMARK  193  A    between atoms: _469  and  _470
REMARK  194  A    between atoms: _473  and  _475
REMARK  195  A    between atoms: _475  and  _476
REMARK  196  A    between atoms: _475  and  _478
REMARK  197  A    between atoms: _478  and  _479
REMARK  198  A    between atoms: _483  and  _484
REMARK  199  A    between atoms: _489  and  _491
REMARK  200  A    between atoms: _491  and  _492
REMARK  201  A    between atoms: _495  and  _497
REMARK  202  A    between atoms: _497  and  _498
REMARK  203  A    between atoms: _497  and  _500
REMARK  204  A    between atoms: _500  and  _501
REMARK  205  A    between atoms: _506  and  _508
REMARK  206  A    between atoms: _508  and  _509
REMARK  207  A    between atoms: _508  and  _511
REMARK  208  A    between atoms: _511  and  _512
REMARK  209  A    between atoms: _515  and  _517
REMARK  210  A    between atoms: _517  and  _518
REMARK  211  A    between atoms: _517  and  _520
REMARK  212  A    between atoms: _520  and  _521
REMARK  213  A    between atoms: _524  and  _526
REMARK  214  A    between atoms: _526  and  _527
REMARK  215  A    between atoms: _529  and  _531
REMARK  216  A    between atoms: _531  and  _532
REMARK  217  A    between atoms: _531  and  _534
REMARK  218  A    between atoms: _534  and  _535
REMARK  219  A    between atoms: _535  and  _536
REMARK  220  A    between atoms: _536  and  _537
REMARK  221  A    between atoms: _546  and  _548
REMARK  222  A    between atoms: _548  and  _549
REMARK  223  A    between atoms: _548  and  _551
REMARK  224  A    between atoms: _551  and  _552
REMARK                            x       y       z     vdW  Elec       q    Type
REMARK                         _______ _______ _______ _____ _____    ______ ____
ROOT
ATOM      1  O   HOH     1      26.272  41.159  16.377  0.00  0.00    +0.000 OA
ENDROOT
TORSDOF 0
REMARK  Name = ../refined-set-2016/2nmz/2nmz_pocket.pdb
REMARK  224 active torsions:
REMARK  status: ('A' for Active; 'I' for Inactive)
REMARK    1  A    between atoms: _1  and  _3
REMARK    2  A    between atoms: _3  and  _4
REMARK    3  A    between atoms: _3  and  _6
REMARK    4  A    between atoms: _6  and  _7
REMARK    5  A    between atoms: _7  and  _8
REMARK    6  A    between atoms: _8  and  _9
REMARK    7  A    between atoms: _18  and  _20
REMARK    8  A    between atoms: _20  and  _21
REMARK    9  A    between atoms: _20  and  _23
REMARK   10  A    between atoms: _23  and  _24
REMARK   11  A    between atoms: _27  and  _29
REMARK   12  A    between atoms: _29  and  _30
REMARK   13  A    between atoms: _29  and  _32
REMARK   14  A    between atoms: _32  and  _33
REMARK   15  A    between atoms: _36  and  _38
REMARK   16  A    between atoms: _38  and  _39
REMARK   17  A    between atoms: _38  and  _41
REMARK   18  A    between atoms: _41  and  _42
REMARK   19  A    between atoms: _45  and  _47
REMARK   20  A    between atoms: _47  and  _48
REMARK   21  A    between atoms: _47  and  _50
REMARK   22  A    between atoms: _50  and  _51
REMARK   23  A    between atoms: _54  and  _56
REMARK   24  A    between atoms: _56  and  _57
REMARK   25  A    between atoms: _59  and  _61
REMARK   26  A    between atoms: _61  and  _62
REMARK   27  A    between atoms: _65  and  _67
REMARK   28  A    between atoms: _67  and  _68
REMARK   29  A    between atoms: _67  and  _70
REMARK   30  A    between atoms: _70  and  _71
REMARK   31  A    between atoms: _74  and  _76
REMARK   32  A    between atoms: _76  and  _77
REMARK   33  A    between atoms: _76  and  _79
REMARK   34  A    between atoms: _79  and  _80
REMARK   35  A    between atoms: _83  and  _85
REMARK   36  A    between atoms: _85  and  _86
REMARK   37  A    between atoms: _85  and  _88
REMARK   38  A    between atoms: _88  and  _89
REMARK   39  A    between atoms: _92  and  _94
REMARK   40  A    between atoms: _94  and  _95
REMARK   41  A    between atoms: _94  and  _97
REMARK   42  A    between atoms: _100  and  _102
REMARK   43  A    between atoms: _102  and  _103
REMARK   44  A    between atoms: _102  and  _105
REMARK   45  A    between atoms: _105  and  _106
REMARK   46  A    between atoms: _106  and  _107
REMARK   47  A    between atoms: _107  and  _108
REMARK   48  A    between atoms: _108  and  _109
REMARK   49  A    between atoms: _113  and  _115
REMARK   50  A    between atoms: _115  and  _116
REMARK   51  A    between atoms: _115  and  _118
REMARK   52  A    between atoms: _118  and  _119
REMARK   53  A    between atoms: _119  and  _120
REMARK   54  A    between atoms: _122  and  _124
REMARK   55  A    between atoms: _124  and  _125
REMARK   56  A    between atoms: _124  and  _127
REMARK   57  A    between atoms: _127  and  _128
REMARK   58  A    between atoms: _131  and  _133
REMARK   59  A    between atoms: _133  and  _134
REMARK   60  A    between atoms: _136  and  _138
REMARK   61  A    between atoms: _138  and  _139
REMARK   62  A    between atoms: _141  and  _143
REMARK   63  A    between atoms: _143  and  _144
REMARK   64  A    between atoms: _143  and  _146
REMARK   65  A    between atoms: _146  and  _147
REMARK   66  A    between atoms: _150  and  _152
REMARK   67  A    between atoms: _152  and  _153
REMARK   68  A    between atoms: _155  and  _157
REMARK   69  A    between atoms: _157  and  _158
REMARK   70  A    between atoms: _160  and  _162
REMARK   71  A    between atoms: _162  and  _163
REMARK   72  A    between atoms: _162  and  _165
REMARK   73  A    between atoms: _165  and  _166
REMARK   74  A    between atoms: _172  and  _174
REMARK   75  A    between atoms: _174  and  _175
REMARK   76  A    between atoms: _174  and  _177
REMARK   77  A    between atoms: _177  and  _178
REMARK   78  A    between atoms: _181  and  _183
REMARK   79  A    between atoms: _183  and  _184
REMARK   80  A    between atoms: _183  and  _186
REMARK   81  A    between atoms: _189  and  _191
REMARK   82  A    between atoms: _191  and  _192
REMARK   83  A    between atoms: _191  and  _194
REMARK   84  A    between atoms: _194  and  _195
REMARK   85  A    between atoms: _199  and  _200
REMARK   86  A    between atoms: _205  and  _207
REMARK   87  A    between atoms: _207  and  _208
REMARK   88  A    between atoms: _207  and  _210
REMARK   89  A    between atoms: _210  and  _211
REMARK   90  A    between atoms: _215  and  _216
REMARK   91  A    between atoms: _221  and  _223
REMARK   92  A    between atoms: _223  and  _224
REMARK   93  A    between atoms: _227  and  _229
REMARK   94  A    between atoms: _229  and  _230
REMARK   95  A    between atoms: _229  and  _232
REMARK   96  A    between atoms: _232  and  _233
REMARK   97  A    between atoms: _238  and  _240
REMARK   98  A    between atoms: _240  and  _241
REMARK   99  A    between atoms: _240  and  _243
REMARK  100  A    between atoms: _243  and  _244
REMARK  101  A    between atoms: _247  and  _249
REMARK  102  A    between atoms: _249  and  _250
REMARK  103  A    between atoms: _249  and  _252
REMARK  104  A    between atoms: _252  and  _253
REMARK  105  A    between atoms: _256  and  _258
REMARK  106  A    between atoms: _258  and  _259
REMARK  107  A    between atoms: _261  and  _263
REMARK  108  A    between atoms: _263  and  _264
REMARK  109  A    between atoms: _263  and  _266
REMARK  110  A    between atoms: _266  and  _267
REMARK  111  A    between atoms: _267  and  _268
REMARK  112  A    between atoms: _268  and  _269
REMARK  113  A    between atoms: _278  and  _280
REMARK  114  A    between atoms: _280  and  _281
REMARK  115  A    between atoms: _280  and  _283
REMARK  116  A    between atoms: _283  and  _284
REMARK  117  A    between atoms: _289  and  _291
REMARK  118  A    between atoms: _291  and  _292
REMARK  119  A    between atoms: _291  and  _294
REMARK  120  A    between atoms: _294  and  _295
REMARK  121  A    between atoms: _295  and  _296
REMARK  122  A    between atoms: _296  and  _297
REMARK  123  A    between atoms: _306  and  _308
REMARK  124  A    between atoms: _308  and  _309
REMARK  125  A    between atoms: _308  and  _311
REMARK  126  A    between atoms: _311  and  _312
REMARK  127  A    between atoms: _315  and  _317
REMARK  128  A    between atoms: _317  and  _318
REMARK  129  A    between atoms: _317  and  _320
REMARK  130  A    between atoms: _320  and  _321
REMARK  131  A    between atoms: _324  and  _326
REMARK  132  A    between atoms: _326  and  _327
REMARK  133  A    between atoms: _326  and  _329
REMARK  134  A    between atoms: _329  and  _330
REMARK  135  A    between atoms: _333  and  _335
REMARK  136  A    between atoms: _335  and  _336
REMARK  137  A    between atoms: _335  and  _338
REMARK  138  A    between atoms: _338  and  _339
REMARK  139  A    between atoms: _342  and  _344
REMARK  140  A    between atoms: _344  and  _345
REMARK  141  A    between atoms: _347  and  _349
REMARK  142  A    between atoms: _349  and  _350
REMARK  143  A    between atoms: _353  and  _355
REMARK  144  A    between atoms: _355  and  _356
REMARK  145  A    between atoms: _355  and  _358
REMARK  146  A    between atoms: _358  and  _359
REMARK  147  A    between atoms: _362  and  _364
REMARK  148  A    between atoms: _364  and  _365
REMARK  149  A    between atoms: _364  and  _367
REMARK  150  A    between atoms: _367  and  _368
REMARK  151  A    between atoms: _371  and  _373
REMARK  152  A    between atoms: _373  and  _374
REMARK  153  A    between atoms: _373  and  _376
REMARK  154  A    between atoms: _376  and  _377
REMARK  155  A    between atoms: _380  and  _382
REMARK  156  A    between atoms: _382  and  _383
REMARK  157  A    between atoms: _382  and  _385
REMARK  158  A    between atoms: _388  and  _390
REMARK  159  A    between atoms: _390  and  _391
REMARK  160  A    between atoms: _390  and  _393
REMARK  161  A    between atoms: _393  and  _394
REMARK  162  A    between atoms: _394  and  _395
REMARK  163  A    between atoms: _397  and  _399
REMARK  164  A    between atoms: _399  and  _400
REMARK  165  A    between atoms: _399  and  _402
REMARK  166  A    between atoms: _402  and  _403
REMARK  167  A    between atoms: _406  and  _408
REMARK  168  A    between atoms: _408  and  _409
REMARK  169  A    between atoms: _411  and  _413
REMARK  170  A    between atoms: _413  and  _414
REMARK  171  A    between atoms: _416  and  _418
REMARK  172  A    between atoms: _418  and  _419
REMARK  173  A    between atoms: _418  and  _421
REMARK  174  A    between atoms: _421  and  _422
REMARK  175  A    between atoms: _425  and  _427
REMARK  176  A    between atoms: _427  and  _428
REMARK  177  A    between atoms: _430  and  _432
REMARK  178  A    between atoms: _432  and  _433
REMARK  179  A    between atoms: _435  and  _437
REMARK  180  A    between atoms: _437  and  _438
REMARK  181  A    between atoms: _437  and  _440
REMARK  182  A    between atoms: _440  and  _441
REMARK  183  A    between atoms: _447  and  _449
REMARK  184  A    between atoms: _449  and  _450
REMARK  185  A    between atoms: _449  and  _452
REMARK  186  A    between atoms: _452  and  _453
REMARK  187  A    between atoms: _456  and  _458
REMARK  188  A    between atoms: _458  and  _459
REMARK  189  A    between atoms: _458  and  _461
REMARK  190  A    between atoms: _464  and  _466
REMARK  191  A    between atoms: _466  and  _467
REMARK  192  A    between atoms: _466  and  _469
REMARK  193  A    between atoms: _469  and  _470
REMARK  194  A    between atoms: _473  and  _475
REMARK  195  A    between atoms: _475  and  _476
REMARK  196  A    between atoms: _475  and  _478
REMARK  197  A    between atoms: _478  and  _479
REMARK  198  A    between atoms: _483  and  _484
REMARK  199  A    between atoms: _489  and  _491
REMARK  200  A    between atoms: _491  and  _492
REMARK  201  A    between atoms: _495  and  _497
REMARK  202  A    between atoms: _497  and  _498
REMARK  203  A    between atoms: _497  and  _500
REMARK  204  A    between atoms: _500  and  _501
REMARK  205  A    between atoms: _506  and  _508
REMARK  206  A    between atoms: _508  and  _509
REMARK  207  A    between atoms: _508  and  _511
REMARK  208  A    between atoms: _511  and  _512
REMARK  209  A    between atoms: _515  and  _517
REMARK  210  A    between atoms: _517  and  _518
REMARK  211  A    between atoms: _517  and  _520
REMARK  212  A    between atoms: _520  and  _521
REMARK  213  A    between atoms: _524  and  _526
REMARK  214  A    between atoms: _526  and  _527
REMARK  215  A    between atoms: _529  and  _531
REMARK  216  A    between atoms: _531  and  _532
REMARK  217  A    between atoms: _531  and  _534
REMARK  218  A    between atoms: _534  and  _535
REMARK  219  A    between atoms: _535  and  _536
REMARK  220  A    between atoms: _536  and  _537
REMARK  221  A    between atoms: _546  and  _548
REMARK  222  A    between atoms: _548  and  _549
REMARK  223  A    between atoms: _548  and  _551
REMARK  224  A    between atoms: _551  and  _552
REMARK                            x       y       z     vdW  Elec       q    Type
REMARK                         _______ _______ _______ _____ _____    ______ ____
ROOT
ATOM      1  O   HOH     1      25.231  42.247  18.363  0.00  0.00    +0.000 OA
ENDROOT
TORSDOF 0
REMARK  Name = ../refined-set-2016/2nmz/2nmz_pocket.pdb
REMARK  224 active torsions:
REMARK  status: ('A' for Active; 'I' for Inactive)
REMARK    1  A    between atoms: _1  and  _3
REMARK    2  A    between atoms: _3  and  _4
REMARK    3  A    between atoms: _3  and  _6
REMARK    4  A    between atoms: _6  and  _7
REMARK    5  A    between atoms: _7  and  _8
REMARK    6  A    between atoms: _8  and  _9
REMARK    7  A    between atoms: _18  and  _20
REMARK    8  A    between atoms: _20  and  _21
REMARK    9  A    between atoms: _20  and  _23
REMARK   10  A    between atoms: _23  and  _24
REMARK   11  A    between atoms: _27  and  _29
REMARK   12  A    between atoms: _29  and  _30
REMARK   13  A    between atoms: _29  and  _32
REMARK   14  A    between atoms: _32  and  _33
REMARK   15  A    between atoms: _36  and  _38
REMARK   16  A    between atoms: _38  and  _39
REMARK   17  A    between atoms: _38  and  _41
REMARK   18  A    between atoms: _41  and  _42
REMARK   19  A    between atoms: _45  and  _47
REMARK   20  A    between atoms: _47  and  _48
REMARK   21  A    between atoms: _47  and  _50
REMARK   22  A    between atoms: _50  and  _51
REMARK   23  A    between atoms: _54  and  _56
REMARK   24  A    between atoms: _56  and  _57
REMARK   25  A    between atoms: _59  and  _61
REMARK   26  A    between atoms: _61  and  _62
REMARK   27  A    between atoms: _65  and  _67
REMARK   28  A    between atoms: _67  and  _68
REMARK   29  A    between atoms: _67  and  _70
REMARK   30  A    between atoms: _70  and  _71
REMARK   31  A    between atoms: _74  and  _76
REMARK   32  A    between atoms: _76  and  _77
REMARK   33  A    between atoms: _76  and  _79
REMARK   34  A    between atoms: _79  and  _80
REMARK   35  A    between atoms: _83  and  _85
REMARK   36  A    between atoms: _85  and  _86
REMARK   37  A    between atoms: _85  and  _88
REMARK   38  A    between atoms: _88  and  _89
REMARK   39  A    between atoms: _92  and  _94
REMARK   40  A    between atoms: _94  and  _95
REMARK   41  A    between atoms: _94  and  _97
REMARK   42  A    between atoms: _100  and  _102
REMARK   43  A    between atoms: _102  and  _103
REMARK   44  A    between atoms: _102  and  _105
REMARK   45  A    between atoms: _105  and  _106
REMARK   46  A    between atoms: _106  and  _107
REMARK   47  A    between atoms: _107  and  _108
REMARK   48  A    between atoms: _108  and  _109
REMARK   49  A    between atoms: _113  and  _115
REMARK   50  A    between atoms: _115  and  _116
REMARK   51  A    between atoms: _115  and  _118
REMARK   52  A    between atoms: _118  and  _119
REMARK   53  A    between atoms: _119  and  _120
REMARK   54  A    between atoms: _122  and  _124
REMARK   55  A    between atoms: _124  and  _125
REMARK   56  A    between atoms: _124  and  _127
REMARK   57  A    between atoms: _127  and  _128
REMARK   58  A    between atoms: _131  and  _133
REMARK   59  A    between atoms: _133  and  _134
REMARK   60  A    between atoms: _136  and  _138
REMARK   61  A    between atoms: _138  and  _139
REMARK   62  A    between atoms: _141  and  _143
REMARK   63  A    between atoms: _143  and  _144
REMARK   64  A    between atoms: _143  and  _146
REMARK   65  A    between atoms: _146  and  _147
REMARK   66  A    between atoms: _150  and  _152
REMARK   67  A    between atoms: _152  and  _153
REMARK   68  A    between atoms: _155  and  _157
REMARK   69  A    between atoms: _157  and  _158
REMARK   70  A    between atoms: _160  and  _162
REMARK   71  A    between atoms: _162  and  _163
REMARK   72  A    between atoms: _162  and  _165
REMARK   73  A    between atoms: _165  and  _166
REMARK   74  A    between atoms: _172  and  _174
REMARK   75  A    between atoms: _174  and  _175
REMARK   76  A    between atoms: _174  and  _177
REMARK   77  A    between atoms: _177  and  _178
REMARK   78  A    between atoms: _181  and  _183
REMARK   79  A    between atoms: _183  and  _184
REMARK   80  A    between atoms: _183  and  _186
REMARK   81  A    between atoms: _189  and  _191
REMARK   82  A    between atoms: _191  and  _192
REMARK   83  A    between atoms: _191  and  _194
REMARK   84  A    between atoms: _194  and  _195
REMARK   85  A    between atoms: _199  and  _200
REMARK   86  A    between atoms: _205  and  _207
REMARK   87  A    between atoms: _207  and  _208
REMARK   88  A    between atoms: _207  and  _210
REMARK   89  A    between atoms: _210  and  _211
REMARK   90  A    between atoms: _215  and  _216
REMARK   91  A    between atoms: _221  and  _223
REMARK   92  A    between atoms: _223  and  _224
REMARK   93  A    between atoms: _227  and  _229
REMARK   94  A    between atoms: _229  and  _230
REMARK   95  A    between atoms: _229  and  _232
REMARK   96  A    between atoms: _232  and  _233
REMARK   97  A    between atoms: _238  and  _240
REMARK   98  A    between atoms: _240  and  _241
REMARK   99  A    between atoms: _240  and  _243
REMARK  100  A    between atoms: _243  and  _244
REMARK  101  A    between atoms: _247  and  _249
REMARK  102  A    between atoms: _249  and  _250
REMARK  103  A    between atoms: _249  and  _252
REMARK  104  A    between atoms: _252  and  _253
REMARK  105  A    between atoms: _256  and  _258
REMARK  106  A    between atoms: _258  and  _259
REMARK  107  A    between atoms: _261  and  _263
REMARK  108  A    between atoms: _263  and  _264
REMARK  109  A    between atoms: _263  and  _266
REMARK  110  A    between atoms: _266  and  _267
REMARK  111  A    between atoms: _267  and  _268
REMARK  112  A    between atoms: _268  and  _269
REMARK  113  A    between atoms: _278  and  _280
REMARK  114  A    between atoms: _280  and  _281
REMARK  115  A    between atoms: _280  and  _283
REMARK  116  A    between atoms: _283  and  _284
REMARK  117  A    between atoms: _289  and  _291
REMARK  118  A    between atoms: _291  and  _292
REMARK  119  A    between atoms: _291  and  _294
REMARK  120  A    between atoms: _294  and  _295
REMARK  121  A    between atoms: _295  and  _296
REMARK  122  A    between atoms: _296  and  _297
REMARK  123  A    between atoms: _306  and  _308
REMARK  124  A    between atoms: _308  and  _309
REMARK  125  A    between atoms: _308  and  _311
REMARK  126  A    between atoms: _311  and  _312
REMARK  127  A    between atoms: _315  and  _317
REMARK  128  A    between atoms: _317  and  _318
REMARK  129  A    between atoms: _317  and  _320
REMARK  130  A    between atoms: _320  and  _321
REMARK  131  A    between atoms: _324  and  _326
REMARK  132  A    between atoms: _326  and  _327
REMARK  133  A    between atoms: _326  and  _329
REMARK  134  A    between atoms: _329  and  _330
REMARK  135  A    between atoms: _333  and  _335
REMARK  136  A    between atoms: _335  and  _336
REMARK  137  A    between atoms: _335  and  _338
REMARK  138  A    between atoms: _338  and  _339
REMARK  139  A    between atoms: _342  and  _344
REMARK  140  A    between atoms: _344  and  _345
REMARK  141  A    between atoms: _347  and  _349
REMARK  142  A    between atoms: _349  and  _350
REMARK  143  A    between atoms: _353  and  _355
REMARK  144  A    between atoms: _355  and  _356
REMARK  145  A    between atoms: _355  and  _358
REMARK  146  A    between atoms: _358  and  _359
REMARK  147  A    between atoms: _362  and  _364
REMARK  148  A    between atoms: _364  and  _365
REMARK  149  A    between atoms: _364  and  _367
REMARK  150  A    between atoms: _367  and  _368
REMARK  151  A    between atoms: _371  and  _373
REMARK  152  A    between atoms: _373  and  _374
REMARK  153  A    between atoms: _373  and  _376
REMARK  154  A    between atoms: _376  and  _377
REMARK  155  A    between atoms: _380  and  _382
REMARK  156  A    between atoms: _382  and  _383
REMARK  157  A    between atoms: _382  and  _385
REMARK  158  A    between atoms: _388  and  _390
REMARK  159  A    between atoms: _390  and  _391
REMARK  160  A    between atoms: _390  and  _393
REMARK  161  A    between atoms: _393  and  _394
REMARK  162  A    between atoms: _394  and  _395
REMARK  163  A    between atoms: _397  and  _399
REMARK  164  A    between atoms: _399  and  _400
REMARK  165  A    between atoms: _399  and  _402
REMARK  166  A    between atoms: _402  and  _403
REMARK  167  A    between atoms: _406  and  _408
REMARK  168  A    between atoms: _408  and  _409
REMARK  169  A    between atoms: _411  and  _413
REMARK  170  A    between atoms: _413  and  _414
REMARK  171  A    between atoms: _416  and  _418
REMARK  172  A    between atoms: _418  and  _419
REMARK  173  A    between atoms: _418  and  _421
REMARK  174  A    between atoms: _421  and  _422
REMARK  175  A    between atoms: _425  and  _427
REMARK  176  A    between atoms: _427  and  _428
REMARK  177  A    between atoms: _430  and  _432
REMARK  178  A    between atoms: _432  and  _433
REMARK  179  A    between atoms: _435  and  _437
REMARK  180  A    between atoms: _437  and  _438
REMARK  181  A    between atoms: _437  and  _440
REMARK  182  A    between atoms: _440  and  _441
REMARK  183  A    between atoms: _447  and  _449
REMARK  184  A    between atoms: _449  and  _450
REMARK  185  A    between atoms: _449  and  _452
REMARK  186  A    between atoms: _452  and  _453
REMARK  187  A    between atoms: _456  and  _458
REMARK  188  A    between atoms: _458  and  _459
REMARK  189  A    between atoms: _458  and  _461
REMARK  190  A    between atoms: _464  and  _466
REMARK  191  A    between atoms: _466  and  _467
REMARK  192  A    between atoms: _466  and  _469
REMARK  193  A    between atoms: _469  and  _470
REMARK  194  A    between atoms: _473  and  _475
REMARK  195  A    between atoms: _475  and  _476
REMARK  196  A    between atoms: _475  and  _478
REMARK  197  A    between atoms: _478  and  _479
REMARK  198  A    between atoms: _483  and  _484
REMARK  199  A    between atoms: _489  and  _491
REMARK  200  A    between atoms: _491  and  _492
REMARK  201  A    between atoms: _495  and  _497
REMARK  202  A    between atoms: _497  and  _498
REMARK  203  A    between atoms: _497  and  _500
REMARK  204  A    between atoms: _500  and  _501
REMARK  205  A    between atoms: _506  and  _508
REMARK  206  A    between atoms: _508  and  _509
REMARK  207  A    between atoms: _508  and  _511
REMARK  208  A    between atoms: _511  and  _512
REMARK  209  A    between atoms: _515  and  _517
REMARK  210  A    between atoms: _517  and  _518
REMARK  211  A    between atoms: _517  and  _520
REMARK  212  A    between atoms: _520  and  _521
REMARK  213  A    between atoms: _524  and  _526
REMARK  214  A    between atoms: _526  and  _527
REMARK  215  A    between atoms: _529  and  _531
REMARK  216  A    between atoms: _531  and  _532
REMARK  217  A    between atoms: _531  and  _534
REMARK  218  A    between atoms: _534  and  _535
REMARK  219  A    between atoms: _535  and  _536
REMARK  220  A    between atoms: _536  and  _537
REMARK  221  A    between atoms: _546  and  _548
REMARK  222  A    between atoms: _548  and  _549
REMARK  223  A    between atoms: _548  and  _551
REMARK  224  A    between atoms: _551  and  _552
REMARK                            x       y       z     vdW  Elec       q    Type
REMARK                         _______ _______ _______ _____ _____    ______ ____
ROOT
ATOM      1  O   HOH     1      23.392  36.163  20.546  0.00  0.00    +0.000 OA
ENDROOT
TORSDOF 0
REMARK  Name = ../refined-set-2016/2nmz/2nmz_pocket.pdb
REMARK  224 active torsions:
REMARK  status: ('A' for Active; 'I' for Inactive)
REMARK    1  A    between atoms: _1  and  _3
REMARK    2  A    between atoms: _3  and  _4
REMARK    3  A    between atoms: _3  and  _6
REMARK    4  A    between atoms: _6  and  _7
REMARK    5  A    between atoms: _7  and  _8
REMARK    6  A    between atoms: _8  and  _9
REMARK    7  A    between atoms: _18  and  _20
REMARK    8  A    between atoms: _20  and  _21
REMARK    9  A    between atoms: _20  and  _23
REMARK   10  A    between atoms: _23  and  _24
REMARK   11  A    between atoms: _27  and  _29
REMARK   12  A    between atoms: _29  and  _30
REMARK   13  A    between atoms: _29  and  _32
REMARK   14  A    between atoms: _32  and  _33
REMARK   15  A    between atoms: _36  and  _38
REMARK   16  A    between atoms: _38  and  _39
REMARK   17  A    between atoms: _38  and  _41
REMARK   18  A    between atoms: _41  and  _42
REMARK   19  A    between atoms: _45  and  _47
REMARK   20  A    between atoms: _47  and  _48
REMARK   21  A    between atoms: _47  and  _50
REMARK   22  A    between atoms: _50  and  _51
REMARK   23  A    between atoms: _54  and  _56
REMARK   24  A    between atoms: _56  and  _57
REMARK   25  A    between atoms: _59  and  _61
REMARK   26  A    between atoms: _61  and  _62
REMARK   27  A    between atoms: _65  and  _67
REMARK   28  A    between atoms: _67  and  _68
REMARK   29  A    between atoms: _67  and  _70
REMARK   30  A    between atoms: _70  and  _71
REMARK   31  A    between atoms: _74  and  _76
REMARK   32  A    between atoms: _76  and  _77
REMARK   33  A    between atoms: _76  and  _79
REMARK   34  A    between atoms: _79  and  _80
REMARK   35  A    between atoms: _83  and  _85
REMARK   36  A    between atoms: _85  and  _86
REMARK   37  A    between atoms: _85  and  _88
REMARK   38  A    between atoms: _88  and  _89
REMARK   39  A    between atoms: _92  and  _94
REMARK   40  A    between atoms: _94  and  _95
REMARK   41  A    between atoms: _94  and  _97
REMARK   42  A    between atoms: _100  and  _102
REMARK   43  A    between atoms: _102  and  _103
REMARK   44  A    between atoms: _102  and  _105
REMARK   45  A    between atoms: _105  and  _106
REMARK   46  A    between atoms: _106  and  _107
REMARK   47  A    between atoms: _107  and  _108
REMARK   48  A    between atoms: _108  and  _109
REMARK   49  A    between atoms: _113  and  _115
REMARK   50  A    between atoms: _115  and  _116
REMARK   51  A    between atoms: _115  and  _118
REMARK   52  A    between atoms: _118  and  _119
REMARK   53  A    between atoms: _119  and  _120
REMARK   54  A    between atoms: _122  and  _124
REMARK   55  A    between atoms: _124  and  _125
REMARK   56  A    between atoms: _124  and  _127
REMARK   57  A    between atoms: _127  and  _128
REMARK   58  A    between atoms: _131  and  _133
REMARK   59  A    between atoms: _133  and  _134
REMARK   60  A    between atoms: _136  and  _138
REMARK   61  A    between atoms: _138  and  _139
REMARK   62  A    between atoms: _141  and  _143
REMARK   63  A    between atoms: _143  and  _144
REMARK   64  A    between atoms: _143  and  _146
REMARK   65  A    between atoms: _146  and  _147
REMARK   66  A    between atoms: _150  and  _152
REMARK   67  A    between atoms: _152  and  _153
REMARK   68  A    between atoms: _155  and  _157
REMARK   69  A    between atoms: _157  and  _158
REMARK   70  A    between atoms: _160  and  _162
REMARK   71  A    between atoms: _162  and  _163
REMARK   72  A    between atoms: _162  and  _165
REMARK   73  A    between atoms: _165  and  _166
REMARK   74  A    between atoms: _172  and  _174
REMARK   75  A    between atoms: _174  and  _175
REMARK   76  A    between atoms: _174  and  _177
REMARK   77  A    between atoms: _177  and  _178
REMARK   78  A    between atoms: _181  and  _183
REMARK   79  A    between atoms: _183  and  _184
REMARK   80  A    between atoms: _183  and  _186
REMARK   81  A    between atoms: _189  and  _191
REMARK   82  A    between atoms: _191  and  _192
REMARK   83  A    between atoms: _191  and  _194
REMARK   84  A    between atoms: _194  and  _195
REMARK   85  A    between atoms: _199  and  _200
REMARK   86  A    between atoms: _205  and  _207
REMARK   87  A    between atoms: _207  and  _208
REMARK   88  A    between atoms: _207  and  _210
REMARK   89  A    between atoms: _210  and  _211
REMARK   90  A    between atoms: _215  and  _216
REMARK   91  A    between atoms: _221  and  _223
REMARK   92  A    between atoms: _223  and  _224
REMARK   93  A    between atoms: _227  and  _229
REMARK   94  A    between atoms: _229  and  _230
REMARK   95  A    between atoms: _229  and  _232
REMARK   96  A    between atoms: _232  and  _233
REMARK   97  A    between atoms: _238  and  _240
REMARK   98  A    between atoms: _240  and  _241
REMARK   99  A    between atoms: _240  and  _243
REMARK  100  A    between atoms: _243  and  _244
REMARK  101  A    between atoms: _247  and  _249
REMARK  102  A    between atoms: _249  and  _250
REMARK  103  A    between atoms: _249  and  _252
REMARK  104  A    between atoms: _252  and  _253
REMARK  105  A    between atoms: _256  and  _258
REMARK  106  A    between atoms: _258  and  _259
REMARK  107  A    between atoms: _261  and  _263
REMARK  108  A    between atoms: _263  and  _264
REMARK  109  A    between atoms: _263  and  _266
REMARK  110  A    between atoms: _266  and  _267
REMARK  111  A    between atoms: _267  and  _268
REMARK  112  A    between atoms: _268  and  _269
REMARK  113  A    between atoms: _278  and  _280
REMARK  114  A    between atoms: _280  and  _281
REMARK  115  A    between atoms: _280  and  _283
REMARK  116  A    between atoms: _283  and  _284
REMARK  117  A    between atoms: _289  and  _291
REMARK  118  A    between atoms: _291  and  _292
REMARK  119  A    between atoms: _291  and  _294
REMARK  120  A    between atoms: _294  and  _295
REMARK  121  A    between atoms: _295  and  _296
REMARK  122  A    between atoms: _296  and  _297
REMARK  123  A    between atoms: _306  and  _308
REMARK  124  A    between atoms: _308  and  _309
REMARK  125  A    between atoms: _308  and  _311
REMARK  126  A    between atoms: _311  and  _312
REMARK  127  A    between atoms: _315  and  _317
REMARK  128  A    between atoms: _317  and  _318
REMARK  129  A    between atoms: _317  and  _320
REMARK  130  A    between atoms: _320  and  _321
REMARK  131  A    between atoms: _324  and  _326
REMARK  132  A    between atoms: _326  and  _327
REMARK  133  A    between atoms: _326  and  _329
REMARK  134  A    between atoms: _329  and  _330
REMARK  135  A    between atoms: _333  and  _335
REMARK  136  A    between atoms: _335  and  _336
REMARK  137  A    between atoms: _335  and  _338
REMARK  138  A    between atoms: _338  and  _339
REMARK  139  A    between atoms: _342  and  _344
REMARK  140  A    between atoms: _344  and  _345
REMARK  141  A    between atoms: _347  and  _349
REMARK  142  A    between atoms: _349  and  _350
REMARK  143  A    between atoms: _353  and  _355
REMARK  144  A    between atoms: _355  and  _356
REMARK  145  A    between atoms: _355  and  _358
REMARK  146  A    between atoms: _358  and  _359
REMARK  147  A    between atoms: _362  and  _364
REMARK  148  A    between atoms: _364  and  _365
REMARK  149  A    between atoms: _364  and  _367
REMARK  150  A    between atoms: _367  and  _368
REMARK  151  A    between atoms: _371  and  _373
REMARK  152  A    between atoms: _373  and  _374
REMARK  153  A    between atoms: _373  and  _376
REMARK  154  A    between atoms: _376  and  _377
REMARK  155  A    between atoms: _380  and  _382
REMARK  156  A    between atoms: _382  and  _383
REMARK  157  A    between atoms: _382  and  _385
REMARK  158  A    between atoms: _388  and  _390
REMARK  159  A    between atoms: _390  and  _391
REMARK  160  A    between atoms: _390  and  _393
REMARK  161  A    between atoms: _393  and  _394
REMARK  162  A    between atoms: _394  and  _395
REMARK  163  A    between atoms: _397  and  _399
REMARK  164  A    between atoms: _399  and  _400
REMARK  165  A    between atoms: _399  and  _402
REMARK  166  A    between atoms: _402  and  _403
REMARK  167  A    between atoms: _406  and  _408
REMARK  168  A    between atoms: _408  and  _409
REMARK  169  A    between atoms: _411  and  _413
REMARK  170  A    between atoms: _413  and  _414
REMARK  171  A    between atoms: _416  and  _418
REMARK  172  A    between atoms: _418  and  _419
REMARK  173  A    between atoms: _418  and  _421
REMARK  174  A    between atoms: _421  and  _422
REMARK  175  A    between atoms: _425  and  _427
REMARK  176  A    between atoms: _427  and  _428
REMARK  177  A    between atoms: _430  and  _432
REMARK  178  A    between atoms: _432  and  _433
REMARK  179  A    between atoms: _435  and  _437
REMARK  180  A    between atoms: _437  and  _438
REMARK  181  A    between atoms: _437  and  _440
REMARK  182  A    between atoms: _440  and  _441
REMARK  183  A    between atoms: _447  and  _449
REMARK  184  A    between atoms: _449  and  _450
REMARK  185  A    between atoms: _449  and  _452
REMARK  186  A    between atoms: _452  and  _453
REMARK  187  A    between atoms: _456  and  _458
REMARK  188  A    between atoms: _458  and  _459
REMARK  189  A    between atoms: _458  and  _461
REMARK  190  A    between atoms: _464  and  _466
REMARK  191  A    between atoms: _466  and  _467
REMARK  192  A    between atoms: _466  and  _469
REMARK  193  A    between atoms: _469  and  _470
REMARK  194  A    between atoms: _473  and  _475
REMARK  195  A    between atoms: _475  and  _476
REMARK  196  A    between atoms: _475  and  _478
REMARK  197  A    between atoms: _478  and  _479
REMARK  198  A    between atoms: _483  and  _484
REMARK  199  A    between atoms: _489  and  _491
REMARK  200  A    between atoms: _491  and  _492
REMARK  201  A    between atoms: _495  and  _497
REMARK  202  A    between atoms: _497  and  _498
REMARK  203  A    between atoms: _497  and  _500
REMARK  204  A    between atoms: _500  and  _501
REMARK  205  A    between atoms: _506  and  _508
REMARK  206  A    between atoms: _508  and  _509
REMARK  207  A    between atoms: _508  and  _511
REMARK  208  A    between atoms: _511  and  _512
REMARK  209  A    between atoms: _515  and  _517
REMARK  210  A    between atoms: _517  and  _518
REMARK  211  A    between atoms: _517  and  _520
REMARK  212  A    between atoms: _520  and  _521
REMARK  213  A    between atoms: _524  and  _526
REMARK  214  A    between atoms: _526  and  _527
REMARK  215  A    between atoms: _529  and  _531
REMARK  216  A    between atoms: _531  and  _532
REMARK  217  A    between atoms: _531  and  _534
REMARK  218  A    between atoms: _534  and  _535
REMARK  219  A    between atoms: _535  and  _536
REMARK  220  A    between atoms: _536  and  _537
REMARK  221  A    between atoms: _546  and  _548
REMARK  222  A    between atoms: _548  and  _549
REMARK  223  A    between atoms: _548  and  _551
REMARK  224  A    between atoms: _551  and  _552
REMARK                            x       y       z     vdW  Elec       q    Type
REMARK                         _______ _______ _______ _____ _____    ______ ____
ROOT
ATOM      1  O   HOH     1      23.642  25.919   6.420  0.00  0.00    +0.000 OA
ENDROOT
TORSDOF 0
REMARK  Name = ../refined-set-2016/2nmz/2nmz_pocket.pdb
REMARK  224 active torsions:
REMARK  status: ('A' for Active; 'I' for Inactive)
REMARK    1  A    between atoms: _1  and  _3
REMARK    2  A    between atoms: _3  and  _4
REMARK    3  A    between atoms: _3  and  _6
REMARK    4  A    between atoms: _6  and  _7
REMARK    5  A    between atoms: _7  and  _8
REMARK    6  A    between atoms: _8  and  _9
REMARK    7  A    between atoms: _18  and  _20
REMARK    8  A    between atoms: _20  and  _21
REMARK    9  A    between atoms: _20  and  _23
REMARK   10  A    between atoms: _23  and  _24
REMARK   11  A    between atoms: _27  and  _29
REMARK   12  A    between atoms: _29  and  _30
REMARK   13  A    between atoms: _29  and  _32
REMARK   14  A    between atoms: _32  and  _33
REMARK   15  A    between atoms: _36  and  _38
REMARK   16  A    between atoms: _38  and  _39
REMARK   17  A    between atoms: _38  and  _41
REMARK   18  A    between atoms: _41  and  _42
REMARK   19  A    between atoms: _45  and  _47
REMARK   20  A    between atoms: _47  and  _48
REMARK   21  A    between atoms: _47  and  _50
REMARK   22  A    between atoms: _50  and  _51
REMARK   23  A    between atoms: _54  and  _56
REMARK   24  A    between atoms: _56  and  _57
REMARK   25  A    between atoms: _59  and  _61
REMARK   26  A    between atoms: _61  and  _62
REMARK   27  A    between atoms: _65  and  _67
REMARK   28  A    between atoms: _67  and  _68
REMARK   29  A    between atoms: _67  and  _70
REMARK   30  A    between atoms: _70  and  _71
REMARK   31  A    between atoms: _74  and  _76
REMARK   32  A    between atoms: _76  and  _77
REMARK   33  A    between atoms: _76  and  _79
REMARK   34  A    between atoms: _79  and  _80
REMARK   35  A    between atoms: _83  and  _85
REMARK   36  A    between atoms: _85  and  _86
REMARK   37  A    between atoms: _85  and  _88
REMARK   38  A    between atoms: _88  and  _89
REMARK   39  A    between atoms: _92  and  _94
REMARK   40  A    between atoms: _94  and  _95
REMARK   41  A    between atoms: _94  and  _97
REMARK   42  A    between atoms: _100  and  _102
REMARK   43  A    between atoms: _102  and  _103
REMARK   44  A    between atoms: _102  and  _105
REMARK   45  A    between atoms: _105  and  _106
REMARK   46  A    between atoms: _106  and  _107
REMARK   47  A    between atoms: _107  and  _108
REMARK   48  A    between atoms: _108  and  _109
REMARK   49  A    between atoms: _113  and  _115
REMARK   50  A    between atoms: _115  and  _116
REMARK   51  A    between atoms: _115  and  _118
REMARK   52  A    between atoms: _118  and  _119
REMARK   53  A    between atoms: _119  and  _120
REMARK   54  A    between atoms: _122  and  _124
REMARK   55  A    between atoms: _124  and  _125
REMARK   56  A    between atoms: _124  and  _127
REMARK   57  A    between atoms: _127  and  _128
REMARK   58  A    between atoms: _131  and  _133
REMARK   59  A    between atoms: _133  and  _134
REMARK   60  A    between atoms: _136  and  _138
REMARK   61  A    between atoms: _138  and  _139
REMARK   62  A    between atoms: _141  and  _143
REMARK   63  A    between atoms: _143  and  _144
REMARK   64  A    between atoms: _143  and  _146
REMARK   65  A    between atoms: _146  and  _147
REMARK   66  A    between atoms: _150  and  _152
REMARK   67  A    between atoms: _152  and  _153
REMARK   68  A    between atoms: _155  and  _157
REMARK   69  A    between atoms: _157  and  _158
REMARK   70  A    between atoms: _160  and  _162
REMARK   71  A    between atoms: _162  and  _163
REMARK   72  A    between atoms: _162  and  _165
REMARK   73  A    between atoms: _165  and  _166
REMARK   74  A    between atoms: _172  and  _174
REMARK   75  A    between atoms: _174  and  _175
REMARK   76  A    between atoms: _174  and  _177
REMARK   77  A    between atoms: _177  and  _178
REMARK   78  A    between atoms: _181  and  _183
REMARK   79  A    between atoms: _183  and  _184
REMARK   80  A    between atoms: _183  and  _186
REMARK   81  A    between atoms: _189  and  _191
REMARK   82  A    between atoms: _191  and  _192
REMARK   83  A    between atoms: _191  and  _194
REMARK   84  A    between atoms: _194  and  _195
REMARK   85  A    between atoms: _199  and  _200
REMARK   86  A    between atoms: _205  and  _207
REMARK   87  A    between atoms: _207  and  _208
REMARK   88  A    between atoms: _207  and  _210
REMARK   89  A    between atoms: _210  and  _211
REMARK   90  A    between atoms: _215  and  _216
REMARK   91  A    between atoms: _221  and  _223
REMARK   92  A    between atoms: _223  and  _224
REMARK   93  A    between atoms: _227  and  _229
REMARK   94  A    between atoms: _229  and  _230
REMARK   95  A    between atoms: _229  and  _232
REMARK   96  A    between atoms: _232  and  _233
REMARK   97  A    between atoms: _238  and  _240
REMARK   98  A    between atoms: _240  and  _241
REMARK   99  A    between atoms: _240  and  _243
REMARK  100  A    between atoms: _243  and  _244
REMARK  101  A    between atoms: _247  and  _249
REMARK  102  A    between atoms: _249  and  _250
REMARK  103  A    between atoms: _249  and  _252
REMARK  104  A    between atoms: _252  and  _253
REMARK  105  A    between atoms: _256  and  _258
REMARK  106  A    between atoms: _258  and  _259
REMARK  107  A    between atoms: _261  and  _263
REMARK  108  A    between atoms: _263  and  _264
REMARK  109  A    between atoms: _263  and  _266
REMARK  110  A    between atoms: _266  and  _267
REMARK  111  A    between atoms: _267  and  _268
REMARK  112  A    between atoms: _268  and  _269
REMARK  113  A    between atoms: _278  and  _280
REMARK  114  A    between atoms: _280  and  _281
REMARK  115  A    between atoms: _280  and  _283
REMARK  116  A    between atoms: _283  and  _284
REMARK  117  A    between atoms: _289  and  _291
REMARK  118  A    between atoms: _291  and  _292
REMARK  119  A    between atoms: _291  and  _294
REMARK  120  A    between atoms: _294  and  _295
REMARK  121  A    between atoms: _295  and  _296
REMARK  122  A    between atoms: _296  and  _297
REMARK  123  A    between atoms: _306  and  _308
REMARK  124  A    between atoms: _308  and  _309
REMARK  125  A    between atoms: _308  and  _311
REMARK  126  A    between atoms: _311  and  _312
REMARK  127  A    between atoms: _315  and  _317
REMARK  128  A    between atoms: _317  and  _318
REMARK  129  A    between atoms: _317  and  _320
REMARK  130  A    between atoms: _320  and  _321
REMARK  131  A    between atoms: _324  and  _326
REMARK  132  A    between atoms: _326  and  _327
REMARK  133  A    between atoms: _326  and  _329
REMARK  134  A    between atoms: _329  and  _330
REMARK  135  A    between atoms: _333  and  _335
REMARK  136  A    between atoms: _335  and  _336
REMARK  137  A    between atoms: _335  and  _338
REMARK  138  A    between atoms: _338  and  _339
REMARK  139  A    between atoms: _342  and  _344
REMARK  140  A    between atoms: _344  and  _345
REMARK  141  A    between atoms: _347  and  _349
REMARK  142  A    between atoms: _349  and  _350
REMARK  143  A    between atoms: _353  and  _355
REMARK  144  A    between atoms: _355  and  _356
REMARK  145  A    between atoms: _355  and  _358
REMARK  146  A    between atoms: _358  and  _359
REMARK  147  A    between atoms: _362  and  _364
REMARK  148  A    between atoms: _364  and  _365
REMARK  149  A    between atoms: _364  and  _367
REMARK  150  A    between atoms: _367  and  _368
REMARK  151  A    between atoms: _371  and  _373
REMARK  152  A    between atoms: _373  and  _374
REMARK  153  A    between atoms: _373  and  _376
REMARK  154  A    between atoms: _376  and  _377
REMARK  155  A    between atoms: _380  and  _382
REMARK  156  A    between atoms: _382  and  _383
REMARK  157  A    between atoms: _382  and  _385
REMARK  158  A    between atoms: _388  and  _390
REMARK  159  A    between atoms: _390  and  _391
REMARK  160  A    between atoms: _390  and  _393
REMARK  161  A    between atoms: _393  and  _394
REMARK  162  A    between atoms: _394  and  _395
REMARK  163  A    between atoms: _397  and  _399
REMARK  164  A    between atoms: _399  and  _400
REMARK  165  A    between atoms: _399  and  _402
REMARK  166  A    between atoms: _402  and  _403
REMARK  167  A    between atoms: _406  and  _408
REMARK  168  A    between atoms: _408  and  _409
REMARK  169  A    between atoms: _411  and  _413
REMARK  170  A    between atoms: _413  and  _414
REMARK  171  A    between atoms: _416  and  _418
REMARK  172  A    between atoms: _418  and  _419
REMARK  173  A    between atoms: _418  and  _421
REMARK  174  A    between atoms: _421  and  _422
REMARK  175  A    between atoms: _425  and  _427
REMARK  176  A    between atoms: _427  and  _428
REMARK  177  A    between atoms: _430  and  _432
REMARK  178  A    between atoms: _432  and  _433
REMARK  179  A    between atoms: _435  and  _437
REMARK  180  A    between atoms: _437  and  _438
REMARK  181  A    between atoms: _437  and  _440
REMARK  182  A    between atoms: _440  and  _441
REMARK  183  A    between atoms: _447  and  _449
REMARK  184  A    between atoms: _449  and  _450
REMARK  185  A    between atoms: _449  and  _452
REMARK  186  A    between atoms: _452  and  _453
REMARK  187  A    between atoms: _456  and  _458
REMARK  188  A    between atoms: _458  and  _459
REMARK  189  A    between atoms: _458  and  _461
REMARK  190  A    between atoms: _464  and  _466
REMARK  191  A    between atoms: _466  and  _467
REMARK  192  A    between atoms: _466  and  _469
REMARK  193  A    between atoms: _469  and  _470
REMARK  194  A    between atoms: _473  and  _475
REMARK  195  A    between atoms: _475  and  _476
REMARK  196  A    between atoms: _475  and  _478
REMARK  197  A    between atoms: _478  and  _479
REMARK  198  A    between atoms: _483  and  _484
REMARK  199  A    between atoms: _489  and  _491
REMARK  200  A    between atoms: _491  and  _492
REMARK  201  A    between atoms: _495  and  _497
REMARK  202  A    between atoms: _497  and  _498
REMARK  203  A    between atoms: _497  and  _500
REMARK  204  A    between atoms: _500  and  _501
REMARK  205  A    between atoms: _506  and  _508
REMARK  206  A    between atoms: _508  and  _509
REMARK  207  A    between atoms: _508  and  _511
REMARK  208  A    between atoms: _511  and  _512
REMARK  209  A    between atoms: _515  and  _517
REMARK  210  A    between atoms: _517  and  _518
REMARK  211  A    between atoms: _517  and  _520
REMARK  212  A    between atoms: _520  and  _521
REMARK  213  A    between atoms: _524  and  _526
REMARK  214  A    between atoms: _526  and  _527
REMARK  215  A    between atoms: _529  and  _531
REMARK  216  A    between atoms: _531  and  _532
REMARK  217  A    between atoms: _531  and  _534
REMARK  218  A    between atoms: _534  and  _535
REMARK  219  A    between atoms: _535  and  _536
REMARK  220  A    between atoms: _536  and  _537
REMARK  221  A    between atoms: _546  and  _548
REMARK  222  A    between atoms: _548  and  _549
REMARK  223  A    between atoms: _548  and  _551
REMARK  224  A    between atoms: _551  and  _552
REMARK                            x       y       z     vdW  Elec       q    Type
REMARK                         _______ _______ _______ _____ _____    ______ ____
ROOT
ATOM      1  O   HOH     1      17.180  23.470  11.604  0.00  0.00    +0.000 OA
ENDROOT
TORSDOF 0
REMARK  Name = ../refined-set-2016/2nmz/2nmz_pocket.pdb
REMARK  224 active torsions:
REMARK  status: ('A' for Active; 'I' for Inactive)
REMARK    1  A    between atoms: _1  and  _3
REMARK    2  A    between atoms: _3  and  _4
REMARK    3  A    between atoms: _3  and  _6
REMARK    4  A    between atoms: _6  and  _7
REMARK    5  A    between atoms: _7  and  _8
REMARK    6  A    between atoms: _8  and  _9
REMARK    7  A    between atoms: _18  and  _20
REMARK    8  A    between atoms: _20  and  _21
REMARK    9  A    between atoms: _20  and  _23
REMARK   10  A    between atoms: _23  and  _24
REMARK   11  A    between atoms: _27  and  _29
REMARK   12  A    between atoms: _29  and  _30
REMARK   13  A    between atoms: _29  and  _32
REMARK   14  A    between atoms: _32  and  _33
REMARK   15  A    between atoms: _36  and  _38
REMARK   16  A    between atoms: _38  and  _39
REMARK   17  A    between atoms: _38  and  _41
REMARK   18  A    between atoms: _41  and  _42
REMARK   19  A    between atoms: _45  and  _47
REMARK   20  A    between atoms: _47  and  _48
REMARK   21  A    between atoms: _47  and  _50
REMARK   22  A    between atoms: _50  and  _51
REMARK   23  A    between atoms: _54  and  _56
REMARK   24  A    between atoms: _56  and  _57
REMARK   25  A    between atoms: _59  and  _61
REMARK   26  A    between atoms: _61  and  _62
REMARK   27  A    between atoms: _65  and  _67
REMARK   28  A    between atoms: _67  and  _68
REMARK   29  A    between atoms: _67  and  _70
REMARK   30  A    between atoms: _70  and  _71
REMARK   31  A    between atoms: _74  and  _76
REMARK   32  A    between atoms: _76  and  _77
REMARK   33  A    between atoms: _76  and  _79
REMARK   34  A    between atoms: _79  and  _80
REMARK   35  A    between atoms: _83  and  _85
REMARK   36  A    between atoms: _85  and  _86
REMARK   37  A    between atoms: _85  and  _88
REMARK   38  A    between atoms: _88  and  _89
REMARK   39  A    between atoms: _92  and  _94
REMARK   40  A    between atoms: _94  and  _95
REMARK   41  A    between atoms: _94  and  _97
REMARK   42  A    between atoms: _100  and  _102
REMARK   43  A    between atoms: _102  and  _103
REMARK   44  A    between atoms: _102  and  _105
REMARK   45  A    between atoms: _105  and  _106
REMARK   46  A    between atoms: _106  and  _107
REMARK   47  A    between atoms: _107  and  _108
REMARK   48  A    between atoms: _108  and  _109
REMARK   49  A    between atoms: _113  and  _115
REMARK   50  A    between atoms: _115  and  _116
REMARK   51  A    between atoms: _115  and  _118
REMARK   52  A    between atoms: _118  and  _119
REMARK   53  A    between atoms: _119  and  _120
REMARK   54  A    between atoms: _122  and  _124
REMARK   55  A    between atoms: _124  and  _125
REMARK   56  A    between atoms: _124  and  _127
REMARK   57  A    between atoms: _127  and  _128
REMARK   58  A    between atoms: _131  and  _133
REMARK   59  A    between atoms: _133  and  _134
REMARK   60  A    between atoms: _136  and  _138
REMARK   61  A    between atoms: _138  and  _139
REMARK   62  A    between atoms: _141  and  _143
REMARK   63  A    between atoms: _143  and  _144
REMARK   64  A    between atoms: _143  and  _146
REMARK   65  A    between atoms: _146  and  _147
REMARK   66  A    between atoms: _150  and  _152
REMARK   67  A    between atoms: _152  and  _153
REMARK   68  A    between atoms: _155  and  _157
REMARK   69  A    between atoms: _157  and  _158
REMARK   70  A    between atoms: _160  and  _162
REMARK   71  A    between atoms: _162  and  _163
REMARK   72  A    between atoms: _162  and  _165
REMARK   73  A    between atoms: _165  and  _166
REMARK   74  A    between atoms: _172  and  _174
REMARK   75  A    between atoms: _174  and  _175
REMARK   76  A    between atoms: _174  and  _177
REMARK   77  A    between atoms: _177  and  _178
REMARK   78  A    between atoms: _181  and  _183
REMARK   79  A    between atoms: _183  and  _184
REMARK   80  A    between atoms: _183  and  _186
REMARK   81  A    between atoms: _189  and  _191
REMARK   82  A    between atoms: _191  and  _192
REMARK   83  A    between atoms: _191  and  _194
REMARK   84  A    between atoms: _194  and  _195
REMARK   85  A    between atoms: _199  and  _200
REMARK   86  A    between atoms: _205  and  _207
REMARK   87  A    between atoms: _207  and  _208
REMARK   88  A    between atoms: _207  and  _210
REMARK   89  A    between atoms: _210  and  _211
REMARK   90  A    between atoms: _215  and  _216
REMARK   91  A    between atoms: _221  and  _223
REMARK   92  A    between atoms: _223  and  _224
REMARK   93  A    between atoms: _227  and  _229
REMARK   94  A    between atoms: _229  and  _230
REMARK   95  A    between atoms: _229  and  _232
REMARK   96  A    between atoms: _232  and  _233
REMARK   97  A    between atoms: _238  and  _240
REMARK   98  A    between atoms: _240  and  _241
REMARK   99  A    between atoms: _240  and  _243
REMARK  100  A    between atoms: _243  and  _244
REMARK  101  A    between atoms: _247  and  _249
REMARK  102  A    between atoms: _249  and  _250
REMARK  103  A    between atoms: _249  and  _252
REMARK  104  A    between atoms: _252  and  _253
REMARK  105  A    between atoms: _256  and  _258
REMARK  106  A    between atoms: _258  and  _259
REMARK  107  A    between atoms: _261  and  _263
REMARK  108  A    between atoms: _263  and  _264
REMARK  109  A    between atoms: _263  and  _266
REMARK  110  A    between atoms: _266  and  _267
REMARK  111  A    between atoms: _267  and  _268
REMARK  112  A    between atoms: _268  and  _269
REMARK  113  A    between atoms: _278  and  _280
REMARK  114  A    between atoms: _280  and  _281
REMARK  115  A    between atoms: _280  and  _283
REMARK  116  A    between atoms: _283  and  _284
REMARK  117  A    between atoms: _289  and  _291
REMARK  118  A    between atoms: _291  and  _292
REMARK  119  A    between atoms: _291  and  _294
REMARK  120  A    between atoms: _294  and  _295
REMARK  121  A    between atoms: _295  and  _296
REMARK  122  A    between atoms: _296  and  _297
REMARK  123  A    between atoms: _306  and  _308
REMARK  124  A    between atoms: _308  and  _309
REMARK  125  A    between atoms: _308  and  _311
REMARK  126  A    between atoms: _311  and  _312
REMARK  127  A    between atoms: _315  and  _317
REMARK  128  A    between atoms: _317  and  _318
REMARK  129  A    between atoms: _317  and  _320
REMARK  130  A    between atoms: _320  and  _321
REMARK  131  A    between atoms: _324  and  _326
REMARK  132  A    between atoms: _326  and  _327
REMARK  133  A    between atoms: _326  and  _329
REMARK  134  A    between atoms: _329  and  _330
REMARK  135  A    between atoms: _333  and  _335
REMARK  136  A    between atoms: _335  and  _336
REMARK  137  A    between atoms: _335  and  _338
REMARK  138  A    between atoms: _338  and  _339
REMARK  139  A    between atoms: _342  and  _344
REMARK  140  A    between atoms: _344  and  _345
REMARK  141  A    between atoms: _347  and  _349
REMARK  142  A    between atoms: _349  and  _350
REMARK  143  A    between atoms: _353  and  _355
REMARK  144  A    between atoms: _355  and  _356
REMARK  145  A    between atoms: _355  and  _358
REMARK  146  A    between atoms: _358  and  _359
REMARK  147  A    between atoms: _362  and  _364
REMARK  148  A    between atoms: _364  and  _365
REMARK  149  A    between atoms: _364  and  _367
REMARK  150  A    between atoms: _367  and  _368
REMARK  151  A    between atoms: _371  and  _373
REMARK  152  A    between atoms: _373  and  _374
REMARK  153  A    between atoms: _373  and  _376
REMARK  154  A    between atoms: _376  and  _377
REMARK  155  A    between atoms: _380  and  _382
REMARK  156  A    between atoms: _382  and  _383
REMARK  157  A    between atoms: _382  and  _385
REMARK  158  A    between atoms: _388  and  _390
REMARK  159  A    between atoms: _390  and  _391
REMARK  160  A    between atoms: _390  and  _393
REMARK  161  A    between atoms: _393  and  _394
REMARK  162  A    between atoms: _394  and  _395
REMARK  163  A    between atoms: _397  and  _399
REMARK  164  A    between atoms: _399  and  _400
REMARK  165  A    between atoms: _399  and  _402
REMARK  166  A    between atoms: _402  and  _403
REMARK  167  A    between atoms: _406  and  _408
REMARK  168  A    between atoms: _408  and  _409
REMARK  169  A    between atoms: _411  and  _413
REMARK  170  A    between atoms: _413  and  _414
REMARK  171  A    between atoms: _416  and  _418
REMARK  172  A    between atoms: _418  and  _419
REMARK  173  A    between atoms: _418  and  _421
REMARK  174  A    between atoms: _421  and  _422
REMARK  175  A    between atoms: _425  and  _427
REMARK  176  A    between atoms: _427  and  _428
REMARK  177  A    between atoms: _430  and  _432
REMARK  178  A    between atoms: _432  and  _433
REMARK  179  A    between atoms: _435  and  _437
REMARK  180  A    between atoms: _437  and  _438
REMARK  181  A    between atoms: _437  and  _440
REMARK  182  A    between atoms: _440  and  _441
REMARK  183  A    between atoms: _447  and  _449
REMARK  184  A    between atoms: _449  and  _450
REMARK  185  A    between atoms: _449  and  _452
REMARK  186  A    between atoms: _452  and  _453
REMARK  187  A    between atoms: _456  and  _458
REMARK  188  A    between atoms: _458  and  _459
REMARK  189  A    between atoms: _458  and  _461
REMARK  190  A    between atoms: _464  and  _466
REMARK  191  A    between atoms: _466  and  _467
REMARK  192  A    between atoms: _466  and  _469
REMARK  193  A    between atoms: _469  and  _470
REMARK  194  A    between atoms: _473  and  _475
REMARK  195  A    between atoms: _475  and  _476
REMARK  196  A    between atoms: _475  and  _478
REMARK  197  A    between atoms: _478  and  _479
REMARK  198  A    between atoms: _483  and  _484
REMARK  199  A    between atoms: _489  and  _491
REMARK  200  A    between atoms: _491  and  _492
REMARK  201  A    between atoms: _495  and  _497
REMARK  202  A    between atoms: _497  and  _498
REMARK  203  A    between atoms: _497  and  _500
REMARK  204  A    between atoms: _500  and  _501
REMARK  205  A    between atoms: _506  and  _508
REMARK  206  A    between atoms: _508  and  _509
REMARK  207  A    between atoms: _508  and  _511
REMARK  208  A    between atoms: _511  and  _512
REMARK  209  A    between atoms: _515  and  _517
REMARK  210  A    between atoms: _517  and  _518
REMARK  211  A    between atoms: _517  and  _520
REMARK  212  A    between atoms: _520  and  _521
REMARK  213  A    between atoms: _524  and  _526
REMARK  214  A    between atoms: _526  and  _527
REMARK  215  A    between atoms: _529  and  _531
REMARK  216  A    between atoms: _531  and  _532
REMARK  217  A    between atoms: _531  and  _534
REMARK  218  A    between atoms: _534  and  _535
REMARK  219  A    between atoms: _535  and  _536
REMARK  220  A    between atoms: _536  and  _537
REMARK  221  A    between atoms: _546  and  _548
REMARK  222  A    between atoms: _548  and  _549
REMARK  223  A    between atoms: _548  and  _551
REMARK  224  A    between atoms: _551  and  _552
REMARK                            x       y       z     vdW  Elec       q    Type
REMARK                         _______ _______ _______ _____ _____    ______ ____
ROOT
ATOM      1  O   HOH     1      15.076  22.186  12.305  0.00  0.00    +0.000 OA
ENDROOT
TORSDOF 0
REMARK  Name = ../refined-set-2016/2nmz/2nmz_pocket.pdb
REMARK  224 active torsions:
REMARK  status: ('A' for Active; 'I' for Inactive)
REMARK    1  A    between atoms: _1  and  _3
REMARK    2  A    between atoms: _3  and  _4
REMARK    3  A    between atoms: _3  and  _6
REMARK    4  A    between atoms: _6  and  _7
REMARK    5  A    between atoms: _7  and  _8
REMARK    6  A    between atoms: _8  and  _9
REMARK    7  A    between atoms: _18  and  _20
REMARK    8  A    between atoms: _20  and  _21
REMARK    9  A    between atoms: _20  and  _23
REMARK   10  A    between atoms: _23  and  _24
REMARK   11  A    between atoms: _27  and  _29
REMARK   12  A    between atoms: _29  and  _30
REMARK   13  A    between atoms: _29  and  _32
REMARK   14  A    between atoms: _32  and  _33
REMARK   15  A    between atoms: _36  and  _38
REMARK   16  A    between atoms: _38  and  _39
REMARK   17  A    between atoms: _38  and  _41
REMARK   18  A    between atoms: _41  and  _42
REMARK   19  A    between atoms: _45  and  _47
REMARK   20  A    between atoms: _47  and  _48
REMARK   21  A    between atoms: _47  and  _50
REMARK   22  A    between atoms: _50  and  _51
REMARK   23  A    between atoms: _54  and  _56
REMARK   24  A    between atoms: _56  and  _57
REMARK   25  A    between atoms: _59  and  _61
REMARK   26  A    between atoms: _61  and  _62
REMARK   27  A    between atoms: _65  and  _67
REMARK   28  A    between atoms: _67  and  _68
REMARK   29  A    between atoms: _67  and  _70
REMARK   30  A    between atoms: _70  and  _71
REMARK   31  A    between atoms: _74  and  _76
REMARK   32  A    between atoms: _76  and  _77
REMARK   33  A    between atoms: _76  and  _79
REMARK   34  A    between atoms: _79  and  _80
REMARK   35  A    between atoms: _83  and  _85
REMARK   36  A    between atoms: _85  and  _86
REMARK   37  A    between atoms: _85  and  _88
REMARK   38  A    between atoms: _88  and  _89
REMARK   39  A    between atoms: _92  and  _94
REMARK   40  A    between atoms: _94  and  _95
REMARK   41  A    between atoms: _94  and  _97
REMARK   42  A    between atoms: _100  and  _102
REMARK   43  A    between atoms: _102  and  _103
REMARK   44  A    between atoms: _102  and  _105
REMARK   45  A    between atoms: _105  and  _106
REMARK   46  A    between atoms: _106  and  _107
REMARK   47  A    between atoms: _107  and  _108
REMARK   48  A    between atoms: _108  and  _109
REMARK   49  A    between atoms: _113  and  _115
REMARK   50  A    between atoms: _115  and  _116
REMARK   51  A    between atoms: _115  and  _118
REMARK   52  A    between atoms: _118  and  _119
REMARK   53  A    between atoms: _119  and  _120
REMARK   54  A    between atoms: _122  and  _124
REMARK   55  A    between atoms: _124  and  _125
REMARK   56  A    between atoms: _124  and  _127
REMARK   57  A    between atoms: _127  and  _128
REMARK   58  A    between atoms: _131  and  _133
REMARK   59  A    between atoms: _133  and  _134
REMARK   60  A    between atoms: _136  and  _138
REMARK   61  A    between atoms: _138  and  _139
REMARK   62  A    between atoms: _141  and  _143
REMARK   63  A    between atoms: _143  and  _144
REMARK   64  A    between atoms: _143  and  _146
REMARK   65  A    between atoms: _146  and  _147
REMARK   66  A    between atoms: _150  and  _152
REMARK   67  A    between atoms: _152  and  _153
REMARK   68  A    between atoms: _155  and  _157
REMARK   69  A    between atoms: _157  and  _158
REMARK   70  A    between atoms: _160  and  _162
REMARK   71  A    between atoms: _162  and  _163
REMARK   72  A    between atoms: _162  and  _165
REMARK   73  A    between atoms: _165  and  _166
REMARK   74  A    between atoms: _172  and  _174
REMARK   75  A    between atoms: _174  and  _175
REMARK   76  A    between atoms: _174  and  _177
REMARK   77  A    between atoms: _177  and  _178
REMARK   78  A    between atoms: _181  and  _183
REMARK   79  A    between atoms: _183  and  _184
REMARK   80  A    between atoms: _183  and  _186
REMARK   81  A    between atoms: _189  and  _191
REMARK   82  A    between atoms: _191  and  _192
REMARK   83  A    between atoms: _191  and  _194
REMARK   84  A    between atoms: _194  and  _195
REMARK   85  A    between atoms: _199  and  _200
REMARK   86  A    between atoms: _205  and  _207
REMARK   87  A    between atoms: _207  and  _208
REMARK   88  A    between atoms: _207  and  _210
REMARK   89  A    between atoms: _210  and  _211
REMARK   90  A    between atoms: _215  and  _216
REMARK   91  A    between atoms: _221  and  _223
REMARK   92  A    between atoms: _223  and  _224
REMARK   93  A    between atoms: _227  and  _229
REMARK   94  A    between atoms: _229  and  _230
REMARK   95  A    between atoms: _229  and  _232
REMARK   96  A    between atoms: _232  and  _233
REMARK   97  A    between atoms: _238  and  _240
REMARK   98  A    between atoms: _240  and  _241
REMARK   99  A    between atoms: _240  and  _243
REMARK  100  A    between atoms: _243  and  _244
REMARK  101  A    between atoms: _247  and  _249
REMARK  102  A    between atoms: _249  and  _250
REMARK  103  A    between atoms: _249  and  _252
REMARK  104  A    between atoms: _252  and  _253
REMARK  105  A    between atoms: _256  and  _258
REMARK  106  A    between atoms: _258  and  _259
REMARK  107  A    between atoms: _261  and  _263
REMARK  108  A    between atoms: _263  and  _264
REMARK  109  A    between atoms: _263  and  _266
REMARK  110  A    between atoms: _266  and  _267
REMARK  111  A    between atoms: _267  and  _268
REMARK  112  A    between atoms: _268  and  _269
REMARK  113  A    between atoms: _278  and  _280
REMARK  114  A    between atoms: _280  and  _281
REMARK  115  A    between atoms: _280  and  _283
REMARK  116  A    between atoms: _283  and  _284
REMARK  117  A    between atoms: _289  and  _291
REMARK  118  A    between atoms: _291  and  _292
REMARK  119  A    between atoms: _291  and  _294
REMARK  120  A    between atoms: _294  and  _295
REMARK  121  A    between atoms: _295  and  _296
REMARK  122  A    between atoms: _296  and  _297
REMARK  123  A    between atoms: _306  and  _308
REMARK  124  A    between atoms: _308  and  _309
REMARK  125  A    between atoms: _308  and  _311
REMARK  126  A    between atoms: _311  and  _312
REMARK  127  A    between atoms: _315  and  _317
REMARK  128  A    between atoms: _317  and  _318
REMARK  129  A    between atoms: _317  and  _320
REMARK  130  A    between atoms: _320  and  _321
REMARK  131  A    between atoms: _324  and  _326
REMARK  132  A    between atoms: _326  and  _327
REMARK  133  A    between atoms: _326  and  _329
REMARK  134  A    between atoms: _329  and  _330
REMARK  135  A    between atoms: _333  and  _335
REMARK  136  A    between atoms: _335  and  _336
REMARK  137  A    between atoms: _335  and  _338
REMARK  138  A    between atoms: _338  and  _339
REMARK  139  A    between atoms: _342  and  _344
REMARK  140  A    between atoms: _344  and  _345
REMARK  141  A    between atoms: _347  and  _349
REMARK  142  A    between atoms: _349  and  _350
REMARK  143  A    between atoms: _353  and  _355
REMARK  144  A    between atoms: _355  and  _356
REMARK  145  A    between atoms: _355  and  _358
REMARK  146  A    between atoms: _358  and  _359
REMARK  147  A    between atoms: _362  and  _364
REMARK  148  A    between atoms: _364  and  _365
REMARK  149  A    between atoms: _364  and  _367
REMARK  150  A    between atoms: _367  and  _368
REMARK  151  A    between atoms: _371  and  _373
REMARK  152  A    between atoms: _373  and  _374
REMARK  153  A    between atoms: _373  and  _376
REMARK  154  A    between atoms: _376  and  _377
REMARK  155  A    between atoms: _380  and  _382
REMARK  156  A    between atoms: _382  and  _383
REMARK  157  A    between atoms: _382  and  _385
REMARK  158  A    between atoms: _388  and  _390
REMARK  159  A    between atoms: _390  and  _391
REMARK  160  A    between atoms: _390  and  _393
REMARK  161  A    between atoms: _393  and  _394
REMARK  162  A    between atoms: _394  and  _395
REMARK  163  A    between atoms: _397  and  _399
REMARK  164  A    between atoms: _399  and  _400
REMARK  165  A    between atoms: _399  and  _402
REMARK  166  A    between atoms: _402  and  _403
REMARK  167  A    between atoms: _406  and  _408
REMARK  168  A    between atoms: _408  and  _409
REMARK  169  A    between atoms: _411  and  _413
REMARK  170  A    between atoms: _413  and  _414
REMARK  171  A    between atoms: _416  and  _418
REMARK  172  A    between atoms: _418  and  _419
REMARK  173  A    between atoms: _418  and  _421
REMARK  174  A    between atoms: _421  and  _422
REMARK  175  A    between atoms: _425  and  _427
REMARK  176  A    between atoms: _427  and  _428
REMARK  177  A    between atoms: _430  and  _432
REMARK  178  A    between atoms: _432  and  _433
REMARK  179  A    between atoms: _435  and  _437
REMARK  180  A    between atoms: _437  and  _438
REMARK  181  A    between atoms: _437  and  _440
REMARK  182  A    between atoms: _440  and  _441
REMARK  183  A    between atoms: _447  and  _449
REMARK  184  A    between atoms: _449  and  _450
REMARK  185  A    between atoms: _449  and  _452
REMARK  186  A    between atoms: _452  and  _453
REMARK  187  A    between atoms: _456  and  _458
REMARK  188  A    between atoms: _458  and  _459
REMARK  189  A    between atoms: _458  and  _461
REMARK  190  A    between atoms: _464  and  _466
REMARK  191  A    between atoms: _466  and  _467
REMARK  192  A    between atoms: _466  and  _469
REMARK  193  A    between atoms: _469  and  _470
REMARK  194  A    between atoms: _473  and  _475
REMARK  195  A    between atoms: _475  and  _476
REMARK  196  A    between atoms: _475  and  _478
REMARK  197  A    between atoms: _478  and  _479
REMARK  198  A    between atoms: _483  and  _484
REMARK  199  A    between atoms: _489  and  _491
REMARK  200  A    between atoms: _491  and  _492
REMARK  201  A    between atoms: _495  and  _497
REMARK  202  A    between atoms: _497  and  _498
REMARK  203  A    between atoms: _497  and  _500
REMARK  204  A    between atoms: _500  and  _501
REMARK  205  A    between atoms: _506  and  _508
REMARK  206  A    between atoms: _508  and  _509
REMARK  207  A    between atoms: _508  and  _511
REMARK  208  A    between atoms: _511  and  _512
REMARK  209  A    between atoms: _515  and  _517
REMARK  210  A    between atoms: _517  and  _518
REMARK  211  A    between atoms: _517  and  _520
REMARK  212  A    between atoms: _520  and  _521
REMARK  213  A    between atoms: _524  and  _526
REMARK  214  A    between atoms: _526  and  _527
REMARK  215  A    between atoms: _529  and  _531
REMARK  216  A    between atoms: _531  and  _532
REMARK  217  A    between atoms: _531  and  _534
REMARK  218  A    between atoms: _534  and  _535
REMARK  219  A    between atoms: _535  and  _536
REMARK  220  A    between atoms: _536  and  _537
REMARK  221  A    between atoms: _546  and  _548
REMARK  222  A    between atoms: _548  and  _549
REMARK  223  A    between atoms: _548  and  _551
REMARK  224  A    between atoms: _551  and  _552
REMARK                            x       y       z     vdW  Elec       q    Type
REMARK                         _______ _______ _______ _____ _____    ______ ____
ROOT
ATOM      1  O   HOH     1      21.850  34.995  19.316  0.00  0.00    +0.000 OA
ENDROOT
TORSDOF 0
