REMARK  Name = ../refined-set-2016/3b65/3b65_pocket.pdb
REMARK  272 active torsions:
REMARK  status: ('A' for Active; 'I' for Inactive)
REMARK    1  A    between atoms: _1  and  _3
REMARK    2  A    between atoms: _3  and  _4
REMARK    3  A    between atoms: _3  and  _6
REMARK    4  A    between atoms: _9  and  _11
REMARK    5  A    between atoms: _11  and  _12
REMARK    6  A    between atoms: _15  and  _17
REMARK    7  A    between atoms: _17  and  _18
REMARK    8  A    between atoms: _17  and  _20
REMARK    9  A    between atoms: _20  and  _21
REMARK   10  A    between atoms: _27  and  _29
REMARK   11  A    between atoms: _29  and  _30
REMARK   12  A    between atoms: _29  and  _32
REMARK   13  A    between atoms: _32  and  _33
REMARK   14  A    between atoms: _36  and  _38
REMARK   15  A    between atoms: _38  and  _39
REMARK   16  A    between atoms: _38  and  _41
REMARK   17  A    between atoms: _41  and  _42
REMARK   18  A    between atoms: _45  and  _47
REMARK   19  A    between atoms: _47  and  _48
REMARK   20  A    between atoms: _47  and  _50
REMARK   21  A    between atoms: _50  and  _51
REMARK   22  A    between atoms: _53  and  _55
REMARK   23  A    between atoms: _55  and  _56
REMARK   24  A    between atoms: _55  and  _58
REMARK   25  A    between atoms: _58  and  _59
REMARK   26  A    between atoms: _61  and  _63
REMARK   27  A    between atoms: _63  and  _64
REMARK   28  A    between atoms: _63  and  _66
REMARK   29  A    between atoms: _66  and  _67
REMARK   30  A    between atoms: _70  and  _72
REMARK   31  A    between atoms: _72  and  _73
REMARK   32  A    between atoms: _72  and  _75
REMARK   33  A    between atoms: _75  and  _76
REMARK   34  A    between atoms: _81  and  _83
REMARK   35  A    between atoms: _83  and  _84
REMARK   36  A    between atoms: _83  and  _86
REMARK   37  A    between atoms: _86  and  _87
REMARK   38  A    between atoms: _87  and  _88
REMARK   39  A    between atoms: _91  and  _93
REMARK   40  A    between atoms: _93  and  _94
REMARK   41  A    between atoms: _93  and  _96
REMARK   42  A    between atoms: _96  and  _97
REMARK   43  A    between atoms: _100  and  _102
REMARK   44  A    between atoms: _102  and  _103
REMARK   45  A    between atoms: _105  and  _107
REMARK   46  A    between atoms: _107  and  _108
REMARK   47  A    between atoms: _107  and  _110
REMARK   48  A    between atoms: _110  and  _111
REMARK   49  A    between atoms: _111  and  _112
REMARK   50  A    between atoms: _115  and  _117
REMARK   51  A    between atoms: _117  and  _118
REMARK   52  A    between atoms: _117  and  _120
REMARK   53  A    between atoms: _120  and  _121
REMARK   54  A    between atoms: _121  and  _122
REMARK   55  A    between atoms: _122  and  _123
REMARK   56  A    between atoms: _132  and  _134
REMARK   57  A    between atoms: _134  and  _135
REMARK   58  A    between atoms: _134  and  _137
REMARK   59  A    between atoms: _137  and  _138
REMARK   60  A    between atoms: _138  and  _139
REMARK   61  A    between atoms: _144  and  _146
REMARK   62  A    between atoms: _146  and  _147
REMARK   63  A    between atoms: _146  and  _149
REMARK   64  A    between atoms: _149  and  _150
REMARK   65  A    between atoms: _153  and  _155
REMARK   66  A    between atoms: _155  and  _156
REMARK   67  A    between atoms: _155  and  _158
REMARK   68  A    between atoms: _158  and  _159
REMARK   69  A    between atoms: _162  and  _164
REMARK   70  A    between atoms: _164  and  _165
REMARK   71  A    between atoms: _164  and  _167
REMARK   72  A    between atoms: _167  and  _168
REMARK   73  A    between atoms: _168  and  _169
REMARK   74  A    between atoms: _174  and  _176
REMARK   75  A    between atoms: _176  and  _177
REMARK   76  A    between atoms: _176  and  _179
REMARK   77  A    between atoms: _179  and  _180
REMARK   78  A    between atoms: _185  and  _186
REMARK   79  A    between atoms: _188  and  _190
REMARK   80  A    between atoms: _190  and  _191
REMARK   81  A    between atoms: _190  and  _193
REMARK   82  A    between atoms: _193  and  _194
REMARK   83  A    between atoms: _196  and  _198
REMARK   84  A    between atoms: _198  and  _199
REMARK   85  A    between atoms: _198  and  _201
REMARK   86  A    between atoms: _201  and  _202
REMARK   87  A    between atoms: _212  and  _214
REMARK   88  A    between atoms: _214  and  _215
REMARK   89  A    between atoms: _214  and  _217
REMARK   90  A    between atoms: _217  and  _218
REMARK   91  A    between atoms: _218  and  _219
REMARK   92  A    between atoms: _221  and  _223
REMARK   93  A    between atoms: _223  and  _224
REMARK   94  A    between atoms: _226  and  _228
REMARK   95  A    between atoms: _228  and  _229
REMARK   96  A    between atoms: _228  and  _231
REMARK   97  A    between atoms: _231  and  _232
REMARK   98  A    between atoms: _235  and  _237
REMARK   99  A    between atoms: _237  and  _238
REMARK  100  A    between atoms: _237  and  _240
REMARK  101  A    between atoms: _240  and  _241
REMARK  102  A    between atoms: _241  and  _242
REMARK  103  A    between atoms: _244  and  _246
REMARK  104  A    between atoms: _246  and  _247
REMARK  105  A    between atoms: _246  and  _249
REMARK  106  A    between atoms: _252  and  _254
REMARK  107  A    between atoms: _254  and  _255
REMARK  108  A    between atoms: _254  and  _257
REMARK  109  A    between atoms: _257  and  _258
REMARK  110  A    between atoms: _264  and  _266
REMARK  111  A    between atoms: _266  and  _267
REMARK  112  A    between atoms: _270  and  _272
REMARK  113  A    between atoms: _272  and  _273
REMARK  114  A    between atoms: _272  and  _275
REMARK  115  A    between atoms: _275  and  _276
REMARK  116  A    between atoms: _276  and  _277
REMARK  117  A    between atoms: _279  and  _281
REMARK  118  A    between atoms: _281  and  _282
REMARK  119  A    between atoms: _284  and  _286
REMARK  120  A    between atoms: _286  and  _287
REMARK  121  A    between atoms: _286  and  _289
REMARK  122  A    between atoms: _289  and  _290
REMARK  123  A    between atoms: _290  and  _291
REMARK  124  A    between atoms: _291  and  _292
REMARK  125  A    between atoms: _301  and  _303
REMARK  126  A    between atoms: _303  and  _304
REMARK  127  A    between atoms: _303  and  _306
REMARK  128  A    between atoms: _306  and  _307
REMARK  129  A    between atoms: _309  and  _311
REMARK  130  A    between atoms: _311  and  _312
REMARK  131  A    between atoms: _311  and  _314
REMARK  132  A    between atoms: _314  and  _315
REMARK  133  A    between atoms: _318  and  _320
REMARK  134  A    between atoms: _320  and  _321
REMARK  135  A    between atoms: _320  and  _323
REMARK  136  A    between atoms: _323  and  _324
REMARK  137  A    between atoms: _329  and  _330
REMARK  138  A    between atoms: _332  and  _334
REMARK  139  A    between atoms: _334  and  _335
REMARK  140  A    between atoms: _334  and  _337
REMARK  141  A    between atoms: _337  and  _338
REMARK  142  A    between atoms: _344  and  _346
REMARK  143  A    between atoms: _346  and  _347
REMARK  144  A    between atoms: _350  and  _352
REMARK  145  A    between atoms: _352  and  _353
REMARK  146  A    between atoms: _352  and  _355
REMARK  147  A    between atoms: _355  and  _356
REMARK  148  A    between atoms: _359  and  _361
REMARK  149  A    between atoms: _361  and  _362
REMARK  150  A    between atoms: _361  and  _364
REMARK  151  A    between atoms: _364  and  _365
REMARK  152  A    between atoms: _371  and  _373
REMARK  153  A    between atoms: _373  and  _374
REMARK  154  A    between atoms: _373  and  _376
REMARK  155  A    between atoms: _376  and  _377
REMARK  156  A    between atoms: _379  and  _381
REMARK  157  A    between atoms: _381  and  _382
REMARK  158  A    between atoms: _381  and  _384
REMARK  159  A    between atoms: _384  and  _385
REMARK  160  A    between atoms: _385  and  _386
REMARK  161  A    between atoms: _388  and  _390
REMARK  162  A    between atoms: _390  and  _391
REMARK  163  A    between atoms: _390  and  _393
REMARK  164  A    between atoms: _393  and  _394
REMARK  165  A    between atoms: _394  and  _395
REMARK  166  A    between atoms: _400  and  _402
REMARK  167  A    between atoms: _402  and  _403
REMARK  168  A    between atoms: _402  and  _405
REMARK  169  A    between atoms: _407  and  _409
REMARK  170  A    between atoms: _409  and  _410
REMARK  171  A    between atoms: _409  and  _412
REMARK  172  A    between atoms: _412  and  _413
REMARK  173  A    between atoms: _413  and  _414
REMARK  174  A    between atoms: _416  and  _418
REMARK  175  A    between atoms: _418  and  _419
REMARK  176  A    between atoms: _418  and  _421
REMARK  177  A    between atoms: _421  and  _422
REMARK  178  A    between atoms: _425  and  _427
REMARK  179  A    between atoms: _427  and  _428
REMARK  180  A    between atoms: _427  and  _430
REMARK  181  A    between atoms: _430  and  _431
REMARK  182  A    between atoms: _434  and  _436
REMARK  183  A    between atoms: _436  and  _437
REMARK  184  A    between atoms: _436  and  _439
REMARK  185  A    between atoms: _439  and  _440
REMARK  186  A    between atoms: _443  and  _445
REMARK  187  A    between atoms: _445  and  _446
REMARK  188  A    between atoms: _449  and  _451
REMARK  189  A    between atoms: _451  and  _452
REMARK  190  A    between atoms: _451  and  _454
REMARK  191  A    between atoms: _454  and  _455
REMARK  192  A    between atoms: _458  and  _460
REMARK  193  A    between atoms: _460  and  _461
REMARK  194  A    between atoms: _460  and  _463
REMARK  195  A    between atoms: _463  and  _464
REMARK  196  A    between atoms: _469  and  _471
REMARK  197  A    between atoms: _471  and  _472
REMARK  198  A    between atoms: _471  and  _474
REMARK  199  A    between atoms: _474  and  _475
REMARK  200  A    between atoms: _475  and  _476
REMARK  201  A    between atoms: _481  and  _483
REMARK  202  A    between atoms: _483  and  _484
REMARK  203  A    between atoms: _483  and  _486
REMARK  204  A    between atoms: _486  and  _487
REMARK  205  A    between atoms: _493  and  _495
REMARK  206  A    between atoms: _495  and  _496
REMARK  207  A    between atoms: _495  and  _498
REMARK  208  A    between atoms: _498  and  _499
REMARK  209  A    between atoms: _502  and  _504
REMARK  210  A    between atoms: _504  and  _505
REMARK  211  A    between atoms: _504  and  _507
REMARK  212  A    between atoms: _507  and  _508
REMARK  213  A    between atoms: _514  and  _516
REMARK  214  A    between atoms: _516  and  _517
REMARK  215  A    between atoms: _516  and  _519
REMARK  216  A    between atoms: _519  and  _520
REMARK  217  A    between atoms: _523  and  _525
REMARK  218  A    between atoms: _525  and  _526
REMARK  219  A    between atoms: _525  and  _528
REMARK  220  A    between atoms: _528  and  _529
REMARK  221  A    between atoms: _532  and  _534
REMARK  222  A    between atoms: _534  and  _535
REMARK  223  A    between atoms: _534  and  _537
REMARK  224  A    between atoms: _540  and  _542
REMARK  225  A    between atoms: _542  and  _543
REMARK  226  A    between atoms: _542  and  _545
REMARK  227  A    between atoms: _545  and  _546
REMARK  228  A    between atoms: _549  and  _551
REMARK  229  A    between atoms: _551  and  _552
REMARK  230  A    between atoms: _551  and  _554
REMARK  231  A    between atoms: _554  and  _555
REMARK  232  A    between atoms: _562  and  _563
REMARK  233  A    between atoms: _568  and  _570
REMARK  234  A    between atoms: _570  and  _571
REMARK  235  A    between atoms: _570  and  _573
REMARK  236  A    between atoms: _573  and  _574
REMARK  237  A    between atoms: _574  and  _575
REMARK  238  A    between atoms: _577  and  _579
REMARK  239  A    between atoms: _579  and  _580
REMARK  240  A    between atoms: _579  and  _582
REMARK  241  A    between atoms: _582  and  _583
REMARK  242  A    between atoms: _583  and  _584
REMARK  243  A    between atoms: _586  and  _588
REMARK  244  A    between atoms: _588  and  _589
REMARK  245  A    between atoms: _592  and  _594
REMARK  246  A    between atoms: _594  and  _595
REMARK  247  A    between atoms: _594  and  _597
REMARK  248  A    between atoms: _597  and  _598
REMARK  249  A    between atoms: _601  and  _603
REMARK  250  A    between atoms: _603  and  _604
REMARK  251  A    between atoms: _603  and  _606
REMARK  252  A    between atoms: _606  and  _607
REMARK  253  A    between atoms: _610  and  _612
REMARK  254  A    between atoms: _612  and  _613
REMARK  255  A    between atoms: _612  and  _615
REMARK  256  A    between atoms: _615  and  _616
REMARK  257  A    between atoms: _618  and  _620
REMARK  258  A    between atoms: _620  and  _621
REMARK  259  A    between atoms: _620  and  _623
REMARK  260  A    between atoms: _626  and  _628
REMARK  261  A    between atoms: _628  and  _629
REMARK  262  A    between atoms: _628  and  _631
REMARK  263  A    between atoms: _631  and  _632
REMARK  264  A    between atoms: _632  and  _633
REMARK  265  A    between atoms: _638  and  _640
REMARK  266  A    between atoms: _640  and  _641
REMARK  267  A    between atoms: _640  and  _643
REMARK  268  A    between atoms: _647  and  _648
REMARK  269  A    between atoms: _653  and  _655
REMARK  270  A    between atoms: _655  and  _656
REMARK  271  A    between atoms: _655  and  _658
REMARK  272  A    between atoms: _658  and  _659
REMARK                            x       y       z     vdW  Elec       q    Type
REMARK                         _______ _______ _______ _____ _____    ______ ____
ROOT
ATOM      1  CA  VAL A   1      28.646  15.382   2.563  0.00  0.00    +0.133 C 
ENDROOT
BRANCH   1   2
ATOM      2  CB  VAL A   1      28.652  14.389   3.748  0.00  0.00    +0.023 C 
ATOM      3  CG2 VAL A   1      28.318  15.112   5.047  0.00  0.00    +0.002 C 
ATOM      4  CG1 VAL A   1      30.003  13.728   3.857  0.00  0.00    +0.002 C 
ENDBRANCH   1   2
BRANCH   1   5
ATOM      5  N   VAL A   1      27.386  16.108   2.469  0.00  0.00    -0.239 NA
ATOM      6  H   VAL A   1      26.507  15.582   2.291  0.00  0.00    +0.142 HD
ENDBRANCH   1   5
BRANCH   1   7
ATOM      7  C   VAL A   1      28.836  14.612   1.255  0.00  0.00    +0.224 C 
ATOM      8  O   VAL A   1      27.962  13.861   0.846  0.00  0.00    -0.287 OA
ENDBRANCH   1   7
TORSDOF 3
REMARK  Name = ../refined-set-2016/3b65/3b65_pocket.pdb
REMARK  272 active torsions:
REMARK  status: ('A' for Active; 'I' for Inactive)
REMARK    1  A    between atoms: _1  and  _3
REMARK    2  A    between atoms: _3  and  _4
REMARK    3  A    between atoms: _3  and  _6
REMARK    4  A    between atoms: _9  and  _11
REMARK    5  A    between atoms: _11  and  _12
REMARK    6  A    between atoms: _15  and  _17
REMARK    7  A    between atoms: _17  and  _18
REMARK    8  A    between atoms: _17  and  _20
REMARK    9  A    between atoms: _20  and  _21
REMARK   10  A    between atoms: _27  and  _29
REMARK   11  A    between atoms: _29  and  _30
REMARK   12  A    between atoms: _29  and  _32
REMARK   13  A    between atoms: _32  and  _33
REMARK   14  A    between atoms: _36  and  _38
REMARK   15  A    between atoms: _38  and  _39
REMARK   16  A    between atoms: _38  and  _41
REMARK   17  A    between atoms: _41  and  _42
REMARK   18  A    between atoms: _45  and  _47
REMARK   19  A    between atoms: _47  and  _48
REMARK   20  A    between atoms: _47  and  _50
REMARK   21  A    between atoms: _50  and  _51
REMARK   22  A    between atoms: _53  and  _55
REMARK   23  A    between atoms: _55  and  _56
REMARK   24  A    between atoms: _55  and  _58
REMARK   25  A    between atoms: _58  and  _59
REMARK   26  A    between atoms: _61  and  _63
REMARK   27  A    between atoms: _63  and  _64
REMARK   28  A    between atoms: _63  and  _66
REMARK   29  A    between atoms: _66  and  _67
REMARK   30  A    between atoms: _70  and  _72
REMARK   31  A    between atoms: _72  and  _73
REMARK   32  A    between atoms: _72  and  _75
REMARK   33  A    between atoms: _75  and  _76
REMARK   34  A    between atoms: _81  and  _83
REMARK   35  A    between atoms: _83  and  _84
REMARK   36  A    between atoms: _83  and  _86
REMARK   37  A    between atoms: _86  and  _87
REMARK   38  A    between atoms: _87  and  _88
REMARK   39  A    between atoms: _91  and  _93
REMARK   40  A    between atoms: _93  and  _94
REMARK   41  A    between atoms: _93  and  _96
REMARK   42  A    between atoms: _96  and  _97
REMARK   43  A    between atoms: _100  and  _102
REMARK   44  A    between atoms: _102  and  _103
REMARK   45  A    between atoms: _105  and  _107
REMARK   46  A    between atoms: _107  and  _108
REMARK   47  A    between atoms: _107  and  _110
REMARK   48  A    between atoms: _110  and  _111
REMARK   49  A    between atoms: _111  and  _112
REMARK   50  A    between atoms: _115  and  _117
REMARK   51  A    between atoms: _117  and  _118
REMARK   52  A    between atoms: _117  and  _120
REMARK   53  A    between atoms: _120  and  _121
REMARK   54  A    between atoms: _121  and  _122
REMARK   55  A    between atoms: _122  and  _123
REMARK   56  A    between atoms: _132  and  _134
REMARK   57  A    between atoms: _134  and  _135
REMARK   58  A    between atoms: _134  and  _137
REMARK   59  A    between atoms: _137  and  _138
REMARK   60  A    between atoms: _138  and  _139
REMARK   61  A    between atoms: _144  and  _146
REMARK   62  A    between atoms: _146  and  _147
REMARK   63  A    between atoms: _146  and  _149
REMARK   64  A    between atoms: _149  and  _150
REMARK   65  A    between atoms: _153  and  _155
REMARK   66  A    between atoms: _155  and  _156
REMARK   67  A    between atoms: _155  and  _158
REMARK   68  A    between atoms: _158  and  _159
REMARK   69  A    between atoms: _162  and  _164
REMARK   70  A    between atoms: _164  and  _165
REMARK   71  A    between atoms: _164  and  _167
REMARK   72  A    between atoms: _167  and  _168
REMARK   73  A    between atoms: _168  and  _169
REMARK   74  A    between atoms: _174  and  _176
REMARK   75  A    between atoms: _176  and  _177
REMARK   76  A    between atoms: _176  and  _179
REMARK   77  A    between atoms: _179  and  _180
REMARK   78  A    between atoms: _185  and  _186
REMARK   79  A    between atoms: _188  and  _190
REMARK   80  A    between atoms: _190  and  _191
REMARK   81  A    between atoms: _190  and  _193
REMARK   82  A    between atoms: _193  and  _194
REMARK   83  A    between atoms: _196  and  _198
REMARK   84  A    between atoms: _198  and  _199
REMARK   85  A    between atoms: _198  and  _201
REMARK   86  A    between atoms: _201  and  _202
REMARK   87  A    between atoms: _212  and  _214
REMARK   88  A    between atoms: _214  and  _215
REMARK   89  A    between atoms: _214  and  _217
REMARK   90  A    between atoms: _217  and  _218
REMARK   91  A    between atoms: _218  and  _219
REMARK   92  A    between atoms: _221  and  _223
REMARK   93  A    between atoms: _223  and  _224
REMARK   94  A    between atoms: _226  and  _228
REMARK   95  A    between atoms: _228  and  _229
REMARK   96  A    between atoms: _228  and  _231
REMARK   97  A    between atoms: _231  and  _232
REMARK   98  A    between atoms: _235  and  _237
REMARK   99  A    between atoms: _237  and  _238
REMARK  100  A    between atoms: _237  and  _240
REMARK  101  A    between atoms: _240  and  _241
REMARK  102  A    between atoms: _241  and  _242
REMARK  103  A    between atoms: _244  and  _246
REMARK  104  A    between atoms: _246  and  _247
REMARK  105  A    between atoms: _246  and  _249
REMARK  106  A    between atoms: _252  and  _254
REMARK  107  A    between atoms: _254  and  _255
REMARK  108  A    between atoms: _254  and  _257
REMARK  109  A    between atoms: _257  and  _258
REMARK  110  A    between atoms: _264  and  _266
REMARK  111  A    between atoms: _266  and  _267
REMARK  112  A    between atoms: _270  and  _272
REMARK  113  A    between atoms: _272  and  _273
REMARK  114  A    between atoms: _272  and  _275
REMARK  115  A    between atoms: _275  and  _276
REMARK  116  A    between atoms: _276  and  _277
REMARK  117  A    between atoms: _279  and  _281
REMARK  118  A    between atoms: _281  and  _282
REMARK  119  A    between atoms: _284  and  _286
REMARK  120  A    between atoms: _286  and  _287
REMARK  121  A    between atoms: _286  and  _289
REMARK  122  A    between atoms: _289  and  _290
REMARK  123  A    between atoms: _290  and  _291
REMARK  124  A    between atoms: _291  and  _292
REMARK  125  A    between atoms: _301  and  _303
REMARK  126  A    between atoms: _303  and  _304
REMARK  127  A    between atoms: _303  and  _306
REMARK  128  A    between atoms: _306  and  _307
REMARK  129  A    between atoms: _309  and  _311
REMARK  130  A    between atoms: _311  and  _312
REMARK  131  A    between atoms: _311  and  _314
REMARK  132  A    between atoms: _314  and  _315
REMARK  133  A    between atoms: _318  and  _320
REMARK  134  A    between atoms: _320  and  _321
REMARK  135  A    between atoms: _320  and  _323
REMARK  136  A    between atoms: _323  and  _324
REMARK  137  A    between atoms: _329  and  _330
REMARK  138  A    between atoms: _332  and  _334
REMARK  139  A    between atoms: _334  and  _335
REMARK  140  A    between atoms: _334  and  _337
REMARK  141  A    between atoms: _337  and  _338
REMARK  142  A    between atoms: _344  and  _346
REMARK  143  A    between atoms: _346  and  _347
REMARK  144  A    between atoms: _350  and  _352
REMARK  145  A    between atoms: _352  and  _353
REMARK  146  A    between atoms: _352  and  _355
REMARK  147  A    between atoms: _355  and  _356
REMARK  148  A    between atoms: _359  and  _361
REMARK  149  A    between atoms: _361  and  _362
REMARK  150  A    between atoms: _361  and  _364
REMARK  151  A    between atoms: _364  and  _365
REMARK  152  A    between atoms: _371  and  _373
REMARK  153  A    between atoms: _373  and  _374
REMARK  154  A    between atoms: _373  and  _376
REMARK  155  A    between atoms: _376  and  _377
REMARK  156  A    between atoms: _379  and  _381
REMARK  157  A    between atoms: _381  and  _382
REMARK  158  A    between atoms: _381  and  _384
REMARK  159  A    between atoms: _384  and  _385
REMARK  160  A    between atoms: _385  and  _386
REMARK  161  A    between atoms: _388  and  _390
REMARK  162  A    between atoms: _390  and  _391
REMARK  163  A    between atoms: _390  and  _393
REMARK  164  A    between atoms: _393  and  _394
REMARK  165  A    between atoms: _394  and  _395
REMARK  166  A    between atoms: _400  and  _402
REMARK  167  A    between atoms: _402  and  _403
REMARK  168  A    between atoms: _402  and  _405
REMARK  169  A    between atoms: _407  and  _409
REMARK  170  A    between atoms: _409  and  _410
REMARK  171  A    between atoms: _409  and  _412
REMARK  172  A    between atoms: _412  and  _413
REMARK  173  A    between atoms: _413  and  _414
REMARK  174  A    between atoms: _416  and  _418
REMARK  175  A    between atoms: _418  and  _419
REMARK  176  A    between atoms: _418  and  _421
REMARK  177  A    between atoms: _421  and  _422
REMARK  178  A    between atoms: _425  and  _427
REMARK  179  A    between atoms: _427  and  _428
REMARK  180  A    between atoms: _427  and  _430
REMARK  181  A    between atoms: _430  and  _431
REMARK  182  A    between atoms: _434  and  _436
REMARK  183  A    between atoms: _436  and  _437
REMARK  184  A    between atoms: _436  and  _439
REMARK  185  A    between atoms: _439  and  _440
REMARK  186  A    between atoms: _443  and  _445
REMARK  187  A    between atoms: _445  and  _446
REMARK  188  A    between atoms: _449  and  _451
REMARK  189  A    between atoms: _451  and  _452
REMARK  190  A    between atoms: _451  and  _454
REMARK  191  A    between atoms: _454  and  _455
REMARK  192  A    between atoms: _458  and  _460
REMARK  193  A    between atoms: _460  and  _461
REMARK  194  A    between atoms: _460  and  _463
REMARK  195  A    between atoms: _463  and  _464
REMARK  196  A    between atoms: _469  and  _471
REMARK  197  A    between atoms: _471  and  _472
REMARK  198  A    between atoms: _471  and  _474
REMARK  199  A    between atoms: _474  and  _475
REMARK  200  A    between atoms: _475  and  _476
REMARK  201  A    between atoms: _481  and  _483
REMARK  202  A    between atoms: _483  and  _484
REMARK  203  A    between atoms: _483  and  _486
REMARK  204  A    between atoms: _486  and  _487
REMARK  205  A    between atoms: _493  and  _495
REMARK  206  A    between atoms: _495  and  _496
REMARK  207  A    between atoms: _495  and  _498
REMARK  208  A    between atoms: _498  and  _499
REMARK  209  A    between atoms: _502  and  _504
REMARK  210  A    between atoms: _504  and  _505
REMARK  211  A    between atoms: _504  and  _507
REMARK  212  A    between atoms: _507  and  _508
REMARK  213  A    between atoms: _514  and  _516
REMARK  214  A    between atoms: _516  and  _517
REMARK  215  A    between atoms: _516  and  _519
REMARK  216  A    between atoms: _519  and  _520
REMARK  217  A    between atoms: _523  and  _525
REMARK  218  A    between atoms: _525  and  _526
REMARK  219  A    between atoms: _525  and  _528
REMARK  220  A    between atoms: _528  and  _529
REMARK  221  A    between atoms: _532  and  _534
REMARK  222  A    between atoms: _534  and  _535
REMARK  223  A    between atoms: _534  and  _537
REMARK  224  A    between atoms: _540  and  _542
REMARK  225  A    between atoms: _542  and  _543
REMARK  226  A    between atoms: _542  and  _545
REMARK  227  A    between atoms: _545  and  _546
REMARK  228  A    between atoms: _549  and  _551
REMARK  229  A    between atoms: _551  and  _552
REMARK  230  A    between atoms: _551  and  _554
REMARK  231  A    between atoms: _554  and  _555
REMARK  232  A    between atoms: _562  and  _563
REMARK  233  A    between atoms: _568  and  _570
REMARK  234  A    between atoms: _570  and  _571
REMARK  235  A    between atoms: _570  and  _573
REMARK  236  A    between atoms: _573  and  _574
REMARK  237  A    between atoms: _574  and  _575
REMARK  238  A    between atoms: _577  and  _579
REMARK  239  A    between atoms: _579  and  _580
REMARK  240  A    between atoms: _579  and  _582
REMARK  241  A    between atoms: _582  and  _583
REMARK  242  A    between atoms: _583  and  _584
REMARK  243  A    between atoms: _586  and  _588
REMARK  244  A    between atoms: _588  and  _589
REMARK  245  A    between atoms: _592  and  _594
REMARK  246  A    between atoms: _594  and  _595
REMARK  247  A    between atoms: _594  and  _597
REMARK  248  A    between atoms: _597  and  _598
REMARK  249  A    between atoms: _601  and  _603
REMARK  250  A    between atoms: _603  and  _604
REMARK  251  A    between atoms: _603  and  _606
REMARK  252  A    between atoms: _606  and  _607
REMARK  253  A    between atoms: _610  and  _612
REMARK  254  A    between atoms: _612  and  _613
REMARK  255  A    between atoms: _612  and  _615
REMARK  256  A    between atoms: _615  and  _616
REMARK  257  A    between atoms: _618  and  _620
REMARK  258  A    between atoms: _620  and  _621
REMARK  259  A    between atoms: _620  and  _623
REMARK  260  A    between atoms: _626  and  _628
REMARK  261  A    between atoms: _628  and  _629
REMARK  262  A    between atoms: _628  and  _631
REMARK  263  A    between atoms: _631  and  _632
REMARK  264  A    between atoms: _632  and  _633
REMARK  265  A    between atoms: _638  and  _640
REMARK  266  A    between atoms: _640  and  _641
REMARK  267  A    between atoms: _640  and  _643
REMARK  268  A    between atoms: _647  and  _648
REMARK  269  A    between atoms: _653  and  _655
REMARK  270  A    between atoms: _655  and  _656
REMARK  271  A    between atoms: _655  and  _658
REMARK  272  A    between atoms: _658  and  _659
REMARK                            x       y       z     vdW  Elec       q    Type
REMARK                         _______ _______ _______ _____ _____    ______ ____
ROOT
ATOM      1  CA  ALA A   1      31.811  10.718  -1.335  0.00  0.00    +0.133 C 
ATOM      2  CB  ALA A   1      31.007   9.573  -1.988  0.00  0.00    +0.027 C 
ENDROOT
BRANCH   1   3
ATOM      3  N   ALA A   1      31.027  11.947  -1.373  0.00  0.00    -0.239 NA
ATOM      4  H   ALA A   1      30.331  12.068  -2.136  0.00  0.00    +0.142 HD
ENDBRANCH   1   3
BRANCH   1   5
ATOM      5  C   ALA A   1      33.178  10.843  -2.006  0.00  0.00    +0.224 C 
ATOM      6  O   ALA A   1      34.129  10.160  -1.622  0.00  0.00    -0.287 OA
ENDBRANCH   1   5
TORSDOF 2
REMARK  Name = ../refined-set-2016/3b65/3b65_pocket.pdb
REMARK  272 active torsions:
REMARK  status: ('A' for Active; 'I' for Inactive)
REMARK    1  A    between atoms: _1  and  _3
REMARK    2  A    between atoms: _3  and  _4
REMARK    3  A    between atoms: _3  and  _6
REMARK    4  A    between atoms: _9  and  _11
REMARK    5  A    between atoms: _11  and  _12
REMARK    6  A    between atoms: _15  and  _17
REMARK    7  A    between atoms: _17  and  _18
REMARK    8  A    between atoms: _17  and  _20
REMARK    9  A    between atoms: _20  and  _21
REMARK   10  A    between atoms: _27  and  _29
REMARK   11  A    between atoms: _29  and  _30
REMARK   12  A    between atoms: _29  and  _32
REMARK   13  A    between atoms: _32  and  _33
REMARK   14  A    between atoms: _36  and  _38
REMARK   15  A    between atoms: _38  and  _39
REMARK   16  A    between atoms: _38  and  _41
REMARK   17  A    between atoms: _41  and  _42
REMARK   18  A    between atoms: _45  and  _47
REMARK   19  A    between atoms: _47  and  _48
REMARK   20  A    between atoms: _47  and  _50
REMARK   21  A    between atoms: _50  and  _51
REMARK   22  A    between atoms: _53  and  _55
REMARK   23  A    between atoms: _55  and  _56
REMARK   24  A    between atoms: _55  and  _58
REMARK   25  A    between atoms: _58  and  _59
REMARK   26  A    between atoms: _61  and  _63
REMARK   27  A    between atoms: _63  and  _64
REMARK   28  A    between atoms: _63  and  _66
REMARK   29  A    between atoms: _66  and  _67
REMARK   30  A    between atoms: _70  and  _72
REMARK   31  A    between atoms: _72  and  _73
REMARK   32  A    between atoms: _72  and  _75
REMARK   33  A    between atoms: _75  and  _76
REMARK   34  A    between atoms: _81  and  _83
REMARK   35  A    between atoms: _83  and  _84
REMARK   36  A    between atoms: _83  and  _86
REMARK   37  A    between atoms: _86  and  _87
REMARK   38  A    between atoms: _87  and  _88
REMARK   39  A    between atoms: _91  and  _93
REMARK   40  A    between atoms: _93  and  _94
REMARK   41  A    between atoms: _93  and  _96
REMARK   42  A    between atoms: _96  and  _97
REMARK   43  A    between atoms: _100  and  _102
REMARK   44  A    between atoms: _102  and  _103
REMARK   45  A    between atoms: _105  and  _107
REMARK   46  A    between atoms: _107  and  _108
REMARK   47  A    between atoms: _107  and  _110
REMARK   48  A    between atoms: _110  and  _111
REMARK   49  A    between atoms: _111  and  _112
REMARK   50  A    between atoms: _115  and  _117
REMARK   51  A    between atoms: _117  and  _118
REMARK   52  A    between atoms: _117  and  _120
REMARK   53  A    between atoms: _120  and  _121
REMARK   54  A    between atoms: _121  and  _122
REMARK   55  A    between atoms: _122  and  _123
REMARK   56  A    between atoms: _132  and  _134
REMARK   57  A    between atoms: _134  and  _135
REMARK   58  A    between atoms: _134  and  _137
REMARK   59  A    between atoms: _137  and  _138
REMARK   60  A    between atoms: _138  and  _139
REMARK   61  A    between atoms: _144  and  _146
REMARK   62  A    between atoms: _146  and  _147
REMARK   63  A    between atoms: _146  and  _149
REMARK   64  A    between atoms: _149  and  _150
REMARK   65  A    between atoms: _153  and  _155
REMARK   66  A    between atoms: _155  and  _156
REMARK   67  A    between atoms: _155  and  _158
REMARK   68  A    between atoms: _158  and  _159
REMARK   69  A    between atoms: _162  and  _164
REMARK   70  A    between atoms: _164  and  _165
REMARK   71  A    between atoms: _164  and  _167
REMARK   72  A    between atoms: _167  and  _168
REMARK   73  A    between atoms: _168  and  _169
REMARK   74  A    between atoms: _174  and  _176
REMARK   75  A    between atoms: _176  and  _177
REMARK   76  A    between atoms: _176  and  _179
REMARK   77  A    between atoms: _179  and  _180
REMARK   78  A    between atoms: _185  and  _186
REMARK   79  A    between atoms: _188  and  _190
REMARK   80  A    between atoms: _190  and  _191
REMARK   81  A    between atoms: _190  and  _193
REMARK   82  A    between atoms: _193  and  _194
REMARK   83  A    between atoms: _196  and  _198
REMARK   84  A    between atoms: _198  and  _199
REMARK   85  A    between atoms: _198  and  _201
REMARK   86  A    between atoms: _201  and  _202
REMARK   87  A    between atoms: _212  and  _214
REMARK   88  A    between atoms: _214  and  _215
REMARK   89  A    between atoms: _214  and  _217
REMARK   90  A    between atoms: _217  and  _218
REMARK   91  A    between atoms: _218  and  _219
REMARK   92  A    between atoms: _221  and  _223
REMARK   93  A    between atoms: _223  and  _224
REMARK   94  A    between atoms: _226  and  _228
REMARK   95  A    between atoms: _228  and  _229
REMARK   96  A    between atoms: _228  and  _231
REMARK   97  A    between atoms: _231  and  _232
REMARK   98  A    between atoms: _235  and  _237
REMARK   99  A    between atoms: _237  and  _238
REMARK  100  A    between atoms: _237  and  _240
REMARK  101  A    between atoms: _240  and  _241
REMARK  102  A    between atoms: _241  and  _242
REMARK  103  A    between atoms: _244  and  _246
REMARK  104  A    between atoms: _246  and  _247
REMARK  105  A    between atoms: _246  and  _249
REMARK  106  A    between atoms: _252  and  _254
REMARK  107  A    between atoms: _254  and  _255
REMARK  108  A    between atoms: _254  and  _257
REMARK  109  A    between atoms: _257  and  _258
REMARK  110  A    between atoms: _264  and  _266
REMARK  111  A    between atoms: _266  and  _267
REMARK  112  A    between atoms: _270  and  _272
REMARK  113  A    between atoms: _272  and  _273
REMARK  114  A    between atoms: _272  and  _275
REMARK  115  A    between atoms: _275  and  _276
REMARK  116  A    between atoms: _276  and  _277
REMARK  117  A    between atoms: _279  and  _281
REMARK  118  A    between atoms: _281  and  _282
REMARK  119  A    between atoms: _284  and  _286
REMARK  120  A    between atoms: _286  and  _287
REMARK  121  A    between atoms: _286  and  _289
REMARK  122  A    between atoms: _289  and  _290
REMARK  123  A    between atoms: _290  and  _291
REMARK  124  A    between atoms: _291  and  _292
REMARK  125  A    between atoms: _301  and  _303
REMARK  126  A    between atoms: _303  and  _304
REMARK  127  A    between atoms: _303  and  _306
REMARK  128  A    between atoms: _306  and  _307
REMARK  129  A    between atoms: _309  and  _311
REMARK  130  A    between atoms: _311  and  _312
REMARK  131  A    between atoms: _311  and  _314
REMARK  132  A    between atoms: _314  and  _315
REMARK  133  A    between atoms: _318  and  _320
REMARK  134  A    between atoms: _320  and  _321
REMARK  135  A    between atoms: _320  and  _323
REMARK  136  A    between atoms: _323  and  _324
REMARK  137  A    between atoms: _329  and  _330
REMARK  138  A    between atoms: _332  and  _334
REMARK  139  A    between atoms: _334  and  _335
REMARK  140  A    between atoms: _334  and  _337
REMARK  141  A    between atoms: _337  and  _338
REMARK  142  A    between atoms: _344  and  _346
REMARK  143  A    between atoms: _346  and  _347
REMARK  144  A    between atoms: _350  and  _352
REMARK  145  A    between atoms: _352  and  _353
REMARK  146  A    between atoms: _352  and  _355
REMARK  147  A    between atoms: _355  and  _356
REMARK  148  A    between atoms: _359  and  _361
REMARK  149  A    between atoms: _361  and  _362
REMARK  150  A    between atoms: _361  and  _364
REMARK  151  A    between atoms: _364  and  _365
REMARK  152  A    between atoms: _371  and  _373
REMARK  153  A    between atoms: _373  and  _374
REMARK  154  A    between atoms: _373  and  _376
REMARK  155  A    between atoms: _376  and  _377
REMARK  156  A    between atoms: _379  and  _381
REMARK  157  A    between atoms: _381  and  _382
REMARK  158  A    between atoms: _381  and  _384
REMARK  159  A    between atoms: _384  and  _385
REMARK  160  A    between atoms: _385  and  _386
REMARK  161  A    between atoms: _388  and  _390
REMARK  162  A    between atoms: _390  and  _391
REMARK  163  A    between atoms: _390  and  _393
REMARK  164  A    between atoms: _393  and  _394
REMARK  165  A    between atoms: _394  and  _395
REMARK  166  A    between atoms: _400  and  _402
REMARK  167  A    between atoms: _402  and  _403
REMARK  168  A    between atoms: _402  and  _405
REMARK  169  A    between atoms: _407  and  _409
REMARK  170  A    between atoms: _409  and  _410
REMARK  171  A    between atoms: _409  and  _412
REMARK  172  A    between atoms: _412  and  _413
REMARK  173  A    between atoms: _413  and  _414
REMARK  174  A    between atoms: _416  and  _418
REMARK  175  A    between atoms: _418  and  _419
REMARK  176  A    between atoms: _418  and  _421
REMARK  177  A    between atoms: _421  and  _422
REMARK  178  A    between atoms: _425  and  _427
REMARK  179  A    between atoms: _427  and  _428
REMARK  180  A    between atoms: _427  and  _430
REMARK  181  A    between atoms: _430  and  _431
REMARK  182  A    between atoms: _434  and  _436
REMARK  183  A    between atoms: _436  and  _437
REMARK  184  A    between atoms: _436  and  _439
REMARK  185  A    between atoms: _439  and  _440
REMARK  186  A    between atoms: _443  and  _445
REMARK  187  A    between atoms: _445  and  _446
REMARK  188  A    between atoms: _449  and  _451
REMARK  189  A    between atoms: _451  and  _452
REMARK  190  A    between atoms: _451  and  _454
REMARK  191  A    between atoms: _454  and  _455
REMARK  192  A    between atoms: _458  and  _460
REMARK  193  A    between atoms: _460  and  _461
REMARK  194  A    between atoms: _460  and  _463
REMARK  195  A    between atoms: _463  and  _464
REMARK  196  A    between atoms: _469  and  _471
REMARK  197  A    between atoms: _471  and  _472
REMARK  198  A    between atoms: _471  and  _474
REMARK  199  A    between atoms: _474  and  _475
REMARK  200  A    between atoms: _475  and  _476
REMARK  201  A    between atoms: _481  and  _483
REMARK  202  A    between atoms: _483  and  _484
REMARK  203  A    between atoms: _483  and  _486
REMARK  204  A    between atoms: _486  and  _487
REMARK  205  A    between atoms: _493  and  _495
REMARK  206  A    between atoms: _495  and  _496
REMARK  207  A    between atoms: _495  and  _498
REMARK  208  A    between atoms: _498  and  _499
REMARK  209  A    between atoms: _502  and  _504
REMARK  210  A    between atoms: _504  and  _505
REMARK  211  A    between atoms: _504  and  _507
REMARK  212  A    between atoms: _507  and  _508
REMARK  213  A    between atoms: _514  and  _516
REMARK  214  A    between atoms: _516  and  _517
REMARK  215  A    between atoms: _516  and  _519
REMARK  216  A    between atoms: _519  and  _520
REMARK  217  A    between atoms: _523  and  _525
REMARK  218  A    between atoms: _525  and  _526
REMARK  219  A    between atoms: _525  and  _528
REMARK  220  A    between atoms: _528  and  _529
REMARK  221  A    between atoms: _532  and  _534
REMARK  222  A    between atoms: _534  and  _535
REMARK  223  A    between atoms: _534  and  _537
REMARK  224  A    between atoms: _540  and  _542
REMARK  225  A    between atoms: _542  and  _543
REMARK  226  A    between atoms: _542  and  _545
REMARK  227  A    between atoms: _545  and  _546
REMARK  228  A    between atoms: _549  and  _551
REMARK  229  A    between atoms: _551  and  _552
REMARK  230  A    between atoms: _551  and  _554
REMARK  231  A    between atoms: _554  and  _555
REMARK  232  A    between atoms: _562  and  _563
REMARK  233  A    between atoms: _568  and  _570
REMARK  234  A    between atoms: _570  and  _571
REMARK  235  A    between atoms: _570  and  _573
REMARK  236  A    between atoms: _573  and  _574
REMARK  237  A    between atoms: _574  and  _575
REMARK  238  A    between atoms: _577  and  _579
REMARK  239  A    between atoms: _579  and  _580
REMARK  240  A    between atoms: _579  and  _582
REMARK  241  A    between atoms: _582  and  _583
REMARK  242  A    between atoms: _583  and  _584
REMARK  243  A    between atoms: _586  and  _588
REMARK  244  A    between atoms: _588  and  _589
REMARK  245  A    between atoms: _592  and  _594
REMARK  246  A    between atoms: _594  and  _595
REMARK  247  A    between atoms: _594  and  _597
REMARK  248  A    between atoms: _597  and  _598
REMARK  249  A    between atoms: _601  and  _603
REMARK  250  A    between atoms: _603  and  _604
REMARK  251  A    between atoms: _603  and  _606
REMARK  252  A    between atoms: _606  and  _607
REMARK  253  A    between atoms: _610  and  _612
REMARK  254  A    between atoms: _612  and  _613
REMARK  255  A    between atoms: _612  and  _615
REMARK  256  A    between atoms: _615  and  _616
REMARK  257  A    between atoms: _618  and  _620
REMARK  258  A    between atoms: _620  and  _621
REMARK  259  A    between atoms: _620  and  _623
REMARK  260  A    between atoms: _626  and  _628
REMARK  261  A    between atoms: _628  and  _629
REMARK  262  A    between atoms: _628  and  _631
REMARK  263  A    between atoms: _631  and  _632
REMARK  264  A    between atoms: _632  and  _633
REMARK  265  A    between atoms: _638  and  _640
REMARK  266  A    between atoms: _640  and  _641
REMARK  267  A    between atoms: _640  and  _643
REMARK  268  A    between atoms: _647  and  _648
REMARK  269  A    between atoms: _653  and  _655
REMARK  270  A    between atoms: _655  and  _656
REMARK  271  A    between atoms: _655  and  _658
REMARK  272  A    between atoms: _658  and  _659
REMARK                            x       y       z     vdW  Elec       q    Type
REMARK                         _______ _______ _______ _____ _____    ______ ____
ROOT
ATOM      1  CB  PHE A   1      32.325  -4.743  -7.194  0.00  0.00    +0.051 C 
ENDROOT
BRANCH   1   2
ATOM      2  CG  PHE A   1      32.222  -5.150  -5.761  0.00  0.00    -0.020 A 
ATOM      3  CD2 PHE A   1      33.355  -5.542  -5.055  0.00  0.00    -0.004 A 
ATOM      4  CE2 PHE A   1      33.272  -5.888  -3.710  0.00  0.00    -0.000 A 
ATOM      5  CZ  PHE A   1      32.044  -5.843  -3.058  0.00  0.00    -0.000 A 
ATOM      6  CE1 PHE A   1      30.905  -5.455  -3.754  0.00  0.00    -0.000 A 
ATOM      7  CD1 PHE A   1      30.997  -5.111  -5.101  0.00  0.00    -0.004 A 
ENDBRANCH   1   2
BRANCH   1   8
ATOM      8  CA  PHE A   1      32.271  -3.232  -7.398  0.00  0.00    +0.137 C 
BRANCH   8   9
ATOM      9  N   PHE A   1      32.500  -2.900  -8.793  0.00  0.00    -0.239 NA
ATOM     10  H   PHE A   1      32.631  -3.662  -9.488  0.00  0.00    +0.142 HD
ENDBRANCH   8   9
BRANCH   8  11
ATOM     11  C   PHE A   1      33.299  -2.567  -6.492  0.00  0.00    +0.224 C 
ATOM     12  O   PHE A   1      32.942  -1.873  -5.541  0.00  0.00    -0.287 OA
ENDBRANCH   8  11
ENDBRANCH   1   8
TORSDOF 4
REMARK  Name = ../refined-set-2016/3b65/3b65_pocket.pdb
REMARK  272 active torsions:
REMARK  status: ('A' for Active; 'I' for Inactive)
REMARK    1  A    between atoms: _1  and  _3
REMARK    2  A    between atoms: _3  and  _4
REMARK    3  A    between atoms: _3  and  _6
REMARK    4  A    between atoms: _9  and  _11
REMARK    5  A    between atoms: _11  and  _12
REMARK    6  A    between atoms: _15  and  _17
REMARK    7  A    between atoms: _17  and  _18
REMARK    8  A    between atoms: _17  and  _20
REMARK    9  A    between atoms: _20  and  _21
REMARK   10  A    between atoms: _27  and  _29
REMARK   11  A    between atoms: _29  and  _30
REMARK   12  A    between atoms: _29  and  _32
REMARK   13  A    between atoms: _32  and  _33
REMARK   14  A    between atoms: _36  and  _38
REMARK   15  A    between atoms: _38  and  _39
REMARK   16  A    between atoms: _38  and  _41
REMARK   17  A    between atoms: _41  and  _42
REMARK   18  A    between atoms: _45  and  _47
REMARK   19  A    between atoms: _47  and  _48
REMARK   20  A    between atoms: _47  and  _50
REMARK   21  A    between atoms: _50  and  _51
REMARK   22  A    between atoms: _53  and  _55
REMARK   23  A    between atoms: _55  and  _56
REMARK   24  A    between atoms: _55  and  _58
REMARK   25  A    between atoms: _58  and  _59
REMARK   26  A    between atoms: _61  and  _63
REMARK   27  A    between atoms: _63  and  _64
REMARK   28  A    between atoms: _63  and  _66
REMARK   29  A    between atoms: _66  and  _67
REMARK   30  A    between atoms: _70  and  _72
REMARK   31  A    between atoms: _72  and  _73
REMARK   32  A    between atoms: _72  and  _75
REMARK   33  A    between atoms: _75  and  _76
REMARK   34  A    between atoms: _81  and  _83
REMARK   35  A    between atoms: _83  and  _84
REMARK   36  A    between atoms: _83  and  _86
REMARK   37  A    between atoms: _86  and  _87
REMARK   38  A    between atoms: _87  and  _88
REMARK   39  A    between atoms: _91  and  _93
REMARK   40  A    between atoms: _93  and  _94
REMARK   41  A    between atoms: _93  and  _96
REMARK   42  A    between atoms: _96  and  _97
REMARK   43  A    between atoms: _100  and  _102
REMARK   44  A    between atoms: _102  and  _103
REMARK   45  A    between atoms: _105  and  _107
REMARK   46  A    between atoms: _107  and  _108
REMARK   47  A    between atoms: _107  and  _110
REMARK   48  A    between atoms: _110  and  _111
REMARK   49  A    between atoms: _111  and  _112
REMARK   50  A    between atoms: _115  and  _117
REMARK   51  A    between atoms: _117  and  _118
REMARK   52  A    between atoms: _117  and  _120
REMARK   53  A    between atoms: _120  and  _121
REMARK   54  A    between atoms: _121  and  _122
REMARK   55  A    between atoms: _122  and  _123
REMARK   56  A    between atoms: _132  and  _134
REMARK   57  A    between atoms: _134  and  _135
REMARK   58  A    between atoms: _134  and  _137
REMARK   59  A    between atoms: _137  and  _138
REMARK   60  A    between atoms: _138  and  _139
REMARK   61  A    between atoms: _144  and  _146
REMARK   62  A    between atoms: _146  and  _147
REMARK   63  A    between atoms: _146  and  _149
REMARK   64  A    between atoms: _149  and  _150
REMARK   65  A    between atoms: _153  and  _155
REMARK   66  A    between atoms: _155  and  _156
REMARK   67  A    between atoms: _155  and  _158
REMARK   68  A    between atoms: _158  and  _159
REMARK   69  A    between atoms: _162  and  _164
REMARK   70  A    between atoms: _164  and  _165
REMARK   71  A    between atoms: _164  and  _167
REMARK   72  A    between atoms: _167  and  _168
REMARK   73  A    between atoms: _168  and  _169
REMARK   74  A    between atoms: _174  and  _176
REMARK   75  A    between atoms: _176  and  _177
REMARK   76  A    between atoms: _176  and  _179
REMARK   77  A    between atoms: _179  and  _180
REMARK   78  A    between atoms: _185  and  _186
REMARK   79  A    between atoms: _188  and  _190
REMARK   80  A    between atoms: _190  and  _191
REMARK   81  A    between atoms: _190  and  _193
REMARK   82  A    between atoms: _193  and  _194
REMARK   83  A    between atoms: _196  and  _198
REMARK   84  A    between atoms: _198  and  _199
REMARK   85  A    between atoms: _198  and  _201
REMARK   86  A    between atoms: _201  and  _202
REMARK   87  A    between atoms: _212  and  _214
REMARK   88  A    between atoms: _214  and  _215
REMARK   89  A    between atoms: _214  and  _217
REMARK   90  A    between atoms: _217  and  _218
REMARK   91  A    between atoms: _218  and  _219
REMARK   92  A    between atoms: _221  and  _223
REMARK   93  A    between atoms: _223  and  _224
REMARK   94  A    between atoms: _226  and  _228
REMARK   95  A    between atoms: _228  and  _229
REMARK   96  A    between atoms: _228  and  _231
REMARK   97  A    between atoms: _231  and  _232
REMARK   98  A    between atoms: _235  and  _237
REMARK   99  A    between atoms: _237  and  _238
REMARK  100  A    between atoms: _237  and  _240
REMARK  101  A    between atoms: _240  and  _241
REMARK  102  A    between atoms: _241  and  _242
REMARK  103  A    between atoms: _244  and  _246
REMARK  104  A    between atoms: _246  and  _247
REMARK  105  A    between atoms: _246  and  _249
REMARK  106  A    between atoms: _252  and  _254
REMARK  107  A    between atoms: _254  and  _255
REMARK  108  A    between atoms: _254  and  _257
REMARK  109  A    between atoms: _257  and  _258
REMARK  110  A    between atoms: _264  and  _266
REMARK  111  A    between atoms: _266  and  _267
REMARK  112  A    between atoms: _270  and  _272
REMARK  113  A    between atoms: _272  and  _273
REMARK  114  A    between atoms: _272  and  _275
REMARK  115  A    between atoms: _275  and  _276
REMARK  116  A    between atoms: _276  and  _277
REMARK  117  A    between atoms: _279  and  _281
REMARK  118  A    between atoms: _281  and  _282
REMARK  119  A    between atoms: _284  and  _286
REMARK  120  A    between atoms: _286  and  _287
REMARK  121  A    between atoms: _286  and  _289
REMARK  122  A    between atoms: _289  and  _290
REMARK  123  A    between atoms: _290  and  _291
REMARK  124  A    between atoms: _291  and  _292
REMARK  125  A    between atoms: _301  and  _303
REMARK  126  A    between atoms: _303  and  _304
REMARK  127  A    between atoms: _303  and  _306
REMARK  128  A    between atoms: _306  and  _307
REMARK  129  A    between atoms: _309  and  _311
REMARK  130  A    between atoms: _311  and  _312
REMARK  131  A    between atoms: _311  and  _314
REMARK  132  A    between atoms: _314  and  _315
REMARK  133  A    between atoms: _318  and  _320
REMARK  134  A    between atoms: _320  and  _321
REMARK  135  A    between atoms: _320  and  _323
REMARK  136  A    between atoms: _323  and  _324
REMARK  137  A    between atoms: _329  and  _330
REMARK  138  A    between atoms: _332  and  _334
REMARK  139  A    between atoms: _334  and  _335
REMARK  140  A    between atoms: _334  and  _337
REMARK  141  A    between atoms: _337  and  _338
REMARK  142  A    between atoms: _344  and  _346
REMARK  143  A    between atoms: _346  and  _347
REMARK  144  A    between atoms: _350  and  _352
REMARK  145  A    between atoms: _352  and  _353
REMARK  146  A    between atoms: _352  and  _355
REMARK  147  A    between atoms: _355  and  _356
REMARK  148  A    between atoms: _359  and  _361
REMARK  149  A    between atoms: _361  and  _362
REMARK  150  A    between atoms: _361  and  _364
REMARK  151  A    between atoms: _364  and  _365
REMARK  152  A    between atoms: _371  and  _373
REMARK  153  A    between atoms: _373  and  _374
REMARK  154  A    between atoms: _373  and  _376
REMARK  155  A    between atoms: _376  and  _377
REMARK  156  A    between atoms: _379  and  _381
REMARK  157  A    between atoms: _381  and  _382
REMARK  158  A    between atoms: _381  and  _384
REMARK  159  A    between atoms: _384  and  _385
REMARK  160  A    between atoms: _385  and  _386
REMARK  161  A    between atoms: _388  and  _390
REMARK  162  A    between atoms: _390  and  _391
REMARK  163  A    between atoms: _390  and  _393
REMARK  164  A    between atoms: _393  and  _394
REMARK  165  A    between atoms: _394  and  _395
REMARK  166  A    between atoms: _400  and  _402
REMARK  167  A    between atoms: _402  and  _403
REMARK  168  A    between atoms: _402  and  _405
REMARK  169  A    between atoms: _407  and  _409
REMARK  170  A    between atoms: _409  and  _410
REMARK  171  A    between atoms: _409  and  _412
REMARK  172  A    between atoms: _412  and  _413
REMARK  173  A    between atoms: _413  and  _414
REMARK  174  A    between atoms: _416  and  _418
REMARK  175  A    between atoms: _418  and  _419
REMARK  176  A    between atoms: _418  and  _421
REMARK  177  A    between atoms: _421  and  _422
REMARK  178  A    between atoms: _425  and  _427
REMARK  179  A    between atoms: _427  and  _428
REMARK  180  A    between atoms: _427  and  _430
REMARK  181  A    between atoms: _430  and  _431
REMARK  182  A    between atoms: _434  and  _436
REMARK  183  A    between atoms: _436  and  _437
REMARK  184  A    between atoms: _436  and  _439
REMARK  185  A    between atoms: _439  and  _440
REMARK  186  A    between atoms: _443  and  _445
REMARK  187  A    between atoms: _445  and  _446
REMARK  188  A    between atoms: _449  and  _451
REMARK  189  A    between atoms: _451  and  _452
REMARK  190  A    between atoms: _451  and  _454
REMARK  191  A    between atoms: _454  and  _455
REMARK  192  A    between atoms: _458  and  _460
REMARK  193  A    between atoms: _460  and  _461
REMARK  194  A    between atoms: _460  and  _463
REMARK  195  A    between atoms: _463  and  _464
REMARK  196  A    between atoms: _469  and  _471
REMARK  197  A    between atoms: _471  and  _472
REMARK  198  A    between atoms: _471  and  _474
REMARK  199  A    between atoms: _474  and  _475
REMARK  200  A    between atoms: _475  and  _476
REMARK  201  A    between atoms: _481  and  _483
REMARK  202  A    between atoms: _483  and  _484
REMARK  203  A    between atoms: _483  and  _486
REMARK  204  A    between atoms: _486  and  _487
REMARK  205  A    between atoms: _493  and  _495
REMARK  206  A    between atoms: _495  and  _496
REMARK  207  A    between atoms: _495  and  _498
REMARK  208  A    between atoms: _498  and  _499
REMARK  209  A    between atoms: _502  and  _504
REMARK  210  A    between atoms: _504  and  _505
REMARK  211  A    between atoms: _504  and  _507
REMARK  212  A    between atoms: _507  and  _508
REMARK  213  A    between atoms: _514  and  _516
REMARK  214  A    between atoms: _516  and  _517
REMARK  215  A    between atoms: _516  and  _519
REMARK  216  A    between atoms: _519  and  _520
REMARK  217  A    between atoms: _523  and  _525
REMARK  218  A    between atoms: _525  and  _526
REMARK  219  A    between atoms: _525  and  _528
REMARK  220  A    between atoms: _528  and  _529
REMARK  221  A    between atoms: _532  and  _534
REMARK  222  A    between atoms: _534  and  _535
REMARK  223  A    between atoms: _534  and  _537
REMARK  224  A    between atoms: _540  and  _542
REMARK  225  A    between atoms: _542  and  _543
REMARK  226  A    between atoms: _542  and  _545
REMARK  227  A    between atoms: _545  and  _546
REMARK  228  A    between atoms: _549  and  _551
REMARK  229  A    between atoms: _551  and  _552
REMARK  230  A    between atoms: _551  and  _554
REMARK  231  A    between atoms: _554  and  _555
REMARK  232  A    between atoms: _562  and  _563
REMARK  233  A    between atoms: _568  and  _570
REMARK  234  A    between atoms: _570  and  _571
REMARK  235  A    between atoms: _570  and  _573
REMARK  236  A    between atoms: _573  and  _574
REMARK  237  A    between atoms: _574  and  _575
REMARK  238  A    between atoms: _577  and  _579
REMARK  239  A    between atoms: _579  and  _580
REMARK  240  A    between atoms: _579  and  _582
REMARK  241  A    between atoms: _582  and  _583
REMARK  242  A    between atoms: _583  and  _584
REMARK  243  A    between atoms: _586  and  _588
REMARK  244  A    between atoms: _588  and  _589
REMARK  245  A    between atoms: _592  and  _594
REMARK  246  A    between atoms: _594  and  _595
REMARK  247  A    between atoms: _594  and  _597
REMARK  248  A    between atoms: _597  and  _598
REMARK  249  A    between atoms: _601  and  _603
REMARK  250  A    between atoms: _603  and  _604
REMARK  251  A    between atoms: _603  and  _606
REMARK  252  A    between atoms: _606  and  _607
REMARK  253  A    between atoms: _610  and  _612
REMARK  254  A    between atoms: _612  and  _613
REMARK  255  A    between atoms: _612  and  _615
REMARK  256  A    between atoms: _615  and  _616
REMARK  257  A    between atoms: _618  and  _620
REMARK  258  A    between atoms: _620  and  _621
REMARK  259  A    between atoms: _620  and  _623
REMARK  260  A    between atoms: _626  and  _628
REMARK  261  A    between atoms: _628  and  _629
REMARK  262  A    between atoms: _628  and  _631
REMARK  263  A    between atoms: _631  and  _632
REMARK  264  A    between atoms: _632  and  _633
REMARK  265  A    between atoms: _638  and  _640
REMARK  266  A    between atoms: _640  and  _641
REMARK  267  A    between atoms: _640  and  _643
REMARK  268  A    between atoms: _647  and  _648
REMARK  269  A    between atoms: _653  and  _655
REMARK  270  A    between atoms: _655  and  _656
REMARK  271  A    between atoms: _655  and  _658
REMARK  272  A    between atoms: _658  and  _659
REMARK                            x       y       z     vdW  Elec       q    Type
REMARK                         _______ _______ _______ _____ _____    ______ ____
ROOT
ATOM      1  C   GLU A   7      33.852   7.628   2.784  0.00  0.00    +0.241 C 
ATOM      2  O   GLU A   7      33.989   8.433   3.710  0.00  0.00    -0.273 OA
ATOM      3  N   LEU A   8      32.715   7.496   2.107  0.00  0.00    -0.297 N 
ATOM      4  H   LEU A   8      32.666   6.808   1.329  0.00  0.00    +0.150 HD
ENDROOT
BRANCH   1   5
ATOM      5  CA  GLU A   7      35.009   6.716   2.350  0.00  0.00    +0.149 C 
BRANCH   5   8
ATOM      6  C   ASN A   6      33.969   4.648   3.134  0.00  0.00    +0.241 C 
ATOM      7  O   ASN A   6      33.859   5.076   4.278  0.00  0.00    -0.273 OA
ATOM      8  N   GLU A   7      34.516   5.354   2.147  0.00  0.00    -0.297 N 
ATOM      9  H   GLU A   7      34.595   4.924   1.203  0.00  0.00    +0.150 HD
BRANCH   6  10
ATOM     10  CA  ASN A   6      33.474   3.248   2.787  0.00  0.00    +0.158 C 
BRANCH  10  13
ATOM     11  C   LEU A   5      31.509   3.968   1.496  0.00  0.00    +0.241 C 
ATOM     12  O   LEU A   5      31.082   4.659   2.413  0.00  0.00    -0.273 OA
ATOM     13  N   ASN A   6      32.643   3.261   1.577  0.00  0.00    -0.297 N 
ATOM     14  H   ASN A   6      32.946   2.702   0.754  0.00  0.00    +0.150 HD
BRANCH  11  15
ATOM     15  CA  LEU A   5      30.744   3.903   0.172  0.00  0.00    +0.149 C 
BRANCH  15  18
ATOM     16  C   SER A   4      32.390   5.191  -1.026  0.00  0.00    +0.243 C 
ATOM     17  O   SER A   4      32.226   6.135  -0.262  0.00  0.00    -0.273 OA
ATOM     18  N   LEU A   5      31.702   4.061  -0.912  0.00  0.00    -0.297 N 
ATOM     19  H   LEU A   5      31.847   3.291  -1.596  0.00  0.00    +0.150 HD
BRANCH  16  20
ATOM     20  CA  SER A   4      33.408   5.272  -2.157  0.00  0.00    +0.178 C 
BRANCH  20  23
ATOM     21  C   SER A   3      34.981   3.575  -1.472  0.00  0.00    +0.243 C 
ATOM     22  O   SER A   3      35.361   4.264  -0.527  0.00  0.00    -0.273 OA
ATOM     23  N   SER A   4      34.043   3.978  -2.319  0.00  0.00    -0.295 N 
ATOM     24  H   SER A   4      33.760   3.360  -3.107  0.00  0.00    +0.150 HD
BRANCH  21  25
ATOM     25  CA  SER A   3      35.577   2.192  -1.719  0.00  0.00    +0.178 C 
BRANCH  25  28
ATOM     26  C   LEU A   2      33.505   0.958  -1.586  0.00  0.00    +0.241 C 
ATOM     27  O   LEU A   2      33.309   1.382  -0.441  0.00  0.00    -0.273 OA
ATOM     28  N   SER A   3      34.581   1.290  -2.291  0.00  0.00    -0.295 N 
ATOM     29  H   SER A   3      34.714   0.908  -3.249  0.00  0.00    +0.150 HD
BRANCH  26  30
ATOM     30  CA  LEU A   2      32.497   0.023  -2.254  0.00  0.00    +0.149 C 
BRANCH  30  33
ATOM     31  C   LEU A   1      31.728   1.448  -4.063  0.00  0.00    +0.238 C 
ATOM     32  O   LEU A   1      31.308   2.294  -3.268  0.00  0.00    -0.274 OA
ATOM     33  N   LEU A   2      32.317   0.321  -3.670  0.00  0.00    -0.297 N 
ATOM     34  H   LEU A   2      32.654  -0.357  -4.383  0.00  0.00    +0.150 HD
BRANCH  31  35
ATOM     35  CA  LEU A   1      31.599   1.665  -5.570  0.00  0.00    +0.145 C 
BRANCH  35  36
ATOM     36  N   LEU A   1      32.834   1.309  -6.255  0.00  0.00    -0.238 NA
ATOM     37  H   LEU A   1      32.825   0.543  -6.959  0.00  0.00    +0.142 HD
ENDBRANCH  35  36
BRANCH  35  38
ATOM     38  CB  LEU A   1      30.417   0.854  -6.144  0.00  0.00    +0.026 C 
BRANCH  38  39
ATOM     39  CG  LEU A   1      29.891   1.281  -7.531  0.00  0.00    +0.002 C 
ATOM     40  CD2 LEU A   1      29.344   2.705  -7.448  0.00  0.00    +0.000 C 
ATOM     41  CD1 LEU A   1      28.797   0.328  -8.008  0.00  0.00    +0.000 C 
ENDBRANCH  38  39
ENDBRANCH  35  38
ENDBRANCH  31  35
ENDBRANCH  30  33
BRANCH  30  42
ATOM     42  CB  LEU A   2      32.931  -1.438  -2.065  0.00  0.00    +0.029 C 
BRANCH  42  43
ATOM     43  CG  LEU A   2      31.839  -2.373  -1.521  0.00  0.00    +0.002 C 
ATOM     44  CD2 LEU A   2      31.412  -1.899  -0.135  0.00  0.00    +0.000 C 
ATOM     45  CD1 LEU A   2      30.638  -2.389  -2.467  0.00  0.00    +0.000 C 
ENDBRANCH  42  43
ENDBRANCH  30  42
ENDBRANCH  26  30
ENDBRANCH  25  28
BRANCH  25  46
ATOM     46  CB  SER A   3      36.791   2.299  -2.637  0.00  0.00    +0.166 C 
BRANCH  46  47
ATOM     47  OG  SER A   3      37.506   1.079  -2.617  0.00  0.00    -0.380 OA
ATOM     48  H   SER A   3      36.917   0.348  -2.931  0.00  0.00    +0.211 HD
ENDBRANCH  46  47
ENDBRANCH  25  46
ENDBRANCH  21  25
ENDBRANCH  20  23
BRANCH  20  49
ATOM     49  CB  SER A   4      32.743   5.707  -3.468  0.00  0.00    +0.166 C 
BRANCH  49  50
ATOM     50  OG  SER A   4      33.720   5.923  -4.478  0.00  0.00    -0.380 OA
ATOM     51  H   SER A   4      34.221   5.084  -4.635  0.00  0.00    +0.211 HD
ENDBRANCH  49  50
ENDBRANCH  20  49
ENDBRANCH  16  20
ENDBRANCH  15  18
BRANCH  15  52
ATOM     52  CB  LEU A   5      29.992   2.570   0.056  0.00  0.00    +0.029 C 
BRANCH  52  53
ATOM     53  CG  LEU A   5      28.873   2.515  -0.993  0.00  0.00    +0.002 C 
ATOM     54  CD2 LEU A   5      27.764   3.501  -0.620  0.00  0.00    +0.000 C 
ATOM     55  CD1 LEU A   5      28.319   1.103  -1.086  0.00  0.00    +0.000 C 
ENDBRANCH  52  53
ENDBRANCH  15  52
ENDBRANCH  11  15
ENDBRANCH  10  13
BRANCH  10  56
ATOM     56  CB  ASN A   6      34.687   2.316   2.630  0.00  0.00    +0.114 C 
BRANCH  56  57
ATOM     57  CG  ASN A   6      34.303   0.839   2.598  0.00  0.00    +0.222 C 
ATOM     58  OD1 ASN A   6      33.198   0.455   2.986  0.00  0.00    -0.275 OA
ATOM     59  ND2 ASN A   6      35.229   0.003   2.147  0.00  0.00    -0.329 N 
ATOM     60 HD21 ASN A   6      35.035  -1.018   2.112  0.00  0.00    +0.145 HD
ATOM     61 HD22 ASN A   6      36.149   0.369   1.829  0.00  0.00    +0.145 HD
ENDBRANCH  56  57
ENDBRANCH  10  56
ENDBRANCH   6  10
ENDBRANCH   5   8
BRANCH   5  62
ATOM     62  CB  GLU A   7      35.642   7.243   1.056  0.00  0.00    +0.041 C 
BRANCH  62  63
ATOM     63  CG  GLU A   7      36.062   8.715   1.105  0.00  0.00    +0.116 C 
BRANCH  63  64
ATOM     64  CD  GLU A   7      37.150   9.000   2.128  0.00  0.00    +0.365 C 
ATOM     65  OE2 GLU A   7      37.279  10.174   2.538  0.00  0.00    -0.246 OA
ATOM     66  OE1 GLU A   7      37.880   8.062   2.512  0.00  0.00    -0.246 OA
ENDBRANCH  63  64
ENDBRANCH  62  63
ENDBRANCH   5  62
ENDBRANCH   1   5
BRANCH   3  67
ATOM     67  CA  LEU A   8      31.535   8.290   2.427  0.00  0.00    +0.149 C 
BRANCH  67  68
ATOM     68  C   LEU A   8      31.079   7.989   3.852  0.00  0.00    +0.241 C 
ATOM     69  O   LEU A   8      30.750   8.903   4.607  0.00  0.00    -0.273 OA
ATOM     70  N   GLY A   9      31.056   6.709   4.211  0.00  0.00    -0.295 N 
ATOM     71  H   GLY A   9      31.332   5.977   3.526  0.00  0.00    +0.150 HD
BRANCH  70  72
ATOM     72  CA  GLY A   9      30.650   6.325   5.548  0.00  0.00    +0.176 C 
BRANCH  72  73
ATOM     73  C   GLY A   9      31.507   7.030   6.576  0.00  0.00    +0.243 C 
ATOM     74  O   GLY A   9      31.004   7.601   7.546  0.00  0.00    -0.273 OA
ATOM     75  N   GLU A  10      32.813   7.012   6.340  0.00  0.00    -0.297 N 
ATOM     76  H   GLU A  10      33.162   6.531   5.487  0.00  0.00    +0.150 HD
BRANCH  75  77
ATOM     77  CA  GLU A  10      33.772   7.642   7.233  0.00  0.00    +0.149 C 
BRANCH  77  78
ATOM     78  C   GLU A  10      33.602   9.168   7.299  0.00  0.00    +0.241 C 
ATOM     79  O   GLU A  10      33.717   9.775   8.367  0.00  0.00    -0.273 OA
ATOM     80  N   ARG A  11      33.334   9.794   6.163  0.00  0.00    -0.297 N 
ATOM     81  H   ARG A  11      33.253   9.250   5.280  0.00  0.00    +0.150 HD
BRANCH  80  82
ATOM     82  CA  ARG A  11      33.152  11.237   6.141  0.00  0.00    +0.149 C 
BRANCH  82  83
ATOM     83  C   ARG A  11      31.906  11.612   6.940  0.00  0.00    +0.241 C 
ATOM     84  O   ARG A  11      31.908  12.595   7.698  0.00  0.00    -0.273 OA
ATOM     85  N   GLN A  12      30.844  10.827   6.781  0.00  0.00    -0.297 N 
ATOM     86  H   GLN A  12      30.892  10.016   6.132  0.00  0.00    +0.150 HD
BRANCH  85  87
ATOM     87  CA  GLN A  12      29.612  11.098   7.513  0.00  0.00    +0.149 C 
BRANCH  87  88
ATOM     88  C   GLN A  12      29.757  10.872   9.012  0.00  0.00    +0.241 C 
ATOM     89  O   GLN A  12      29.151  11.591   9.799  0.00  0.00    -0.273 OA
ATOM     90  N   LEU A  13      30.554   9.881   9.410  0.00  0.00    -0.298 N 
ATOM     91  H   LEU A  13      31.033   9.294   8.698  0.00  0.00    +0.150 HD
BRANCH  90  92
ATOM     92  CA  LEU A  13      30.767   9.603  10.830  0.00  0.00    +0.137 C 
BRANCH  92  93
ATOM     93  C   LEU A  13      31.393  10.811  11.533  0.00  0.00    +0.227 C 
ATOM     94  O   LEU A  13      31.093  11.089  12.696  0.00  0.00    -0.286 OA
ENDBRANCH  92  93
BRANCH  92  95
ATOM     95  CB  LEU A  13      31.679   8.382  11.026  0.00  0.00    +0.028 C 
BRANCH  95  96
ATOM     96  CG  LEU A  13      31.970   8.081  12.508  0.00  0.00    +0.002 C 
ATOM     97  CD2 LEU A  13      30.684   7.666  13.195  0.00  0.00    +0.000 C 
ATOM     98  CD1 LEU A  13      33.019   6.995  12.651  0.00  0.00    +0.000 C 
ENDBRANCH  95  96
ENDBRANCH  92  95
ENDBRANCH  90  92
ENDBRANCH  87  88
BRANCH  87  99
ATOM     99  CB  GLN A  12      28.462  10.251   6.968  0.00  0.00    +0.039 C 
BRANCH  99 100
ATOM    100  CG  GLN A  12      28.041  10.661   5.569  0.00  0.00    +0.087 C 
BRANCH 100 101
ATOM    101  CD  GLN A  12      26.726  10.035   5.143  0.00  0.00    +0.219 C 
ATOM    102  NE2 GLN A  12      25.979   9.495   6.107  0.00  0.00    -0.329 N 
ATOM    103 HE21 GLN A  12      26.312   9.509   7.092  0.00  0.00    +0.145 HD
ATOM    104 HE22 GLN A  12      25.064   9.060   5.873  0.00  0.00    +0.145 HD
ATOM    105  OE1 GLN A  12      26.380  10.046   3.960  0.00  0.00    -0.275 OA
ENDBRANCH 100 101
ENDBRANCH  99 100
ENDBRANCH  87  99
ENDBRANCH  85  87
ENDBRANCH  82  83
BRANCH  82 106
ATOM    106  CB  ARG A  11      33.041  11.733   4.693  0.00  0.00    +0.033 C 
BRANCH 106 107
ATOM    107  CG  ARG A  11      34.308  11.495   3.869  0.00  0.00    +0.045 C 
BRANCH 107 108
ATOM    108  CD  ARG A  11      34.208  12.169   2.516  0.00  0.00    +0.174 C 
BRANCH 108 109
ATOM    109  NE  ARG A  11      35.446  12.061   1.750  0.00  0.00    -0.265 N 
ATOM    110  HE  ARG A  11      36.205  11.462   2.134  0.00  0.00    +0.259 HD
ATOM    111  CZ  ARG A  11      35.666  12.678   0.595  0.00  0.00    +0.342 C 
ATOM    112  NH2 ARG A  11      34.729  13.452   0.064  0.00  0.00    -0.292 N 
ATOM    113 HH21 ARG A  11      33.819  13.577   0.552  0.00  0.00    +0.255 HD
ATOM    114 HH22 ARG A  11      34.904  13.934  -0.841  0.00  0.00    +0.255 HD
ATOM    115  NH1 ARG A  11      36.824  12.512  -0.034  0.00  0.00    -0.292 N 
ATOM    116 HH11 ARG A  11      37.557  11.900   0.378  0.00  0.00    +0.255 HD
ATOM    117 HH12 ARG A  11      36.998  12.994  -0.939  0.00  0.00    +0.255 HD
ENDBRANCH 108 109
ENDBRANCH 107 108
ENDBRANCH 106 107
ENDBRANCH  82 106
ENDBRANCH  80  82
ENDBRANCH  77  78
BRANCH  77 118
ATOM    118  CB  GLU A  10      35.189   7.278   6.776  0.00  0.00    +0.041 C 
BRANCH 118 119
ATOM    119  CG  GLU A  10      36.257   7.524   7.811  0.00  0.00    +0.116 C 
BRANCH 119 120
ATOM    120  CD  GLU A  10      37.161   6.325   7.996  0.00  0.00    +0.365 C 
ATOM    121  OE2 GLU A  10      36.674   5.257   8.432  0.00  0.00    -0.246 OA
ATOM    122  OE1 GLU A  10      38.366   6.448   7.697  0.00  0.00    -0.246 OA
ENDBRANCH 119 120
ENDBRANCH 118 119
ENDBRANCH  77 118
ENDBRANCH  75  77
ENDBRANCH  72  73
ENDBRANCH  70  72
ENDBRANCH  67  68
BRANCH  67 123
ATOM    123  CB  LEU A   8      30.398   7.988   1.448  0.00  0.00    +0.029 C 
BRANCH 123 124
ATOM    124  CG  LEU A   8      29.069   8.707   1.724  0.00  0.00    +0.002 C 
ATOM    125  CD2 LEU A   8      29.271  10.227   1.688  0.00  0.00    +0.000 C 
ATOM    126  CD1 LEU A   8      28.045   8.282   0.686  0.00  0.00    +0.000 C 
ENDBRANCH 123 124
ENDBRANCH  67 123
ENDBRANCH   3  67
TORSDOF 55
REMARK  Name = ../refined-set-2016/3b65/3b65_pocket.pdb
REMARK  272 active torsions:
REMARK  status: ('A' for Active; 'I' for Inactive)
REMARK    1  A    between atoms: _1  and  _3
REMARK    2  A    between atoms: _3  and  _4
REMARK    3  A    between atoms: _3  and  _6
REMARK    4  A    between atoms: _9  and  _11
REMARK    5  A    between atoms: _11  and  _12
REMARK    6  A    between atoms: _15  and  _17
REMARK    7  A    between atoms: _17  and  _18
REMARK    8  A    between atoms: _17  and  _20
REMARK    9  A    between atoms: _20  and  _21
REMARK   10  A    between atoms: _27  and  _29
REMARK   11  A    between atoms: _29  and  _30
REMARK   12  A    between atoms: _29  and  _32
REMARK   13  A    between atoms: _32  and  _33
REMARK   14  A    between atoms: _36  and  _38
REMARK   15  A    between atoms: _38  and  _39
REMARK   16  A    between atoms: _38  and  _41
REMARK   17  A    between atoms: _41  and  _42
REMARK   18  A    between atoms: _45  and  _47
REMARK   19  A    between atoms: _47  and  _48
REMARK   20  A    between atoms: _47  and  _50
REMARK   21  A    between atoms: _50  and  _51
REMARK   22  A    between atoms: _53  and  _55
REMARK   23  A    between atoms: _55  and  _56
REMARK   24  A    between atoms: _55  and  _58
REMARK   25  A    between atoms: _58  and  _59
REMARK   26  A    between atoms: _61  and  _63
REMARK   27  A    between atoms: _63  and  _64
REMARK   28  A    between atoms: _63  and  _66
REMARK   29  A    between atoms: _66  and  _67
REMARK   30  A    between atoms: _70  and  _72
REMARK   31  A    between atoms: _72  and  _73
REMARK   32  A    between atoms: _72  and  _75
REMARK   33  A    between atoms: _75  and  _76
REMARK   34  A    between atoms: _81  and  _83
REMARK   35  A    between atoms: _83  and  _84
REMARK   36  A    between atoms: _83  and  _86
REMARK   37  A    between atoms: _86  and  _87
REMARK   38  A    between atoms: _87  and  _88
REMARK   39  A    between atoms: _91  and  _93
REMARK   40  A    between atoms: _93  and  _94
REMARK   41  A    between atoms: _93  and  _96
REMARK   42  A    between atoms: _96  and  _97
REMARK   43  A    between atoms: _100  and  _102
REMARK   44  A    between atoms: _102  and  _103
REMARK   45  A    between atoms: _105  and  _107
REMARK   46  A    between atoms: _107  and  _108
REMARK   47  A    between atoms: _107  and  _110
REMARK   48  A    between atoms: _110  and  _111
REMARK   49  A    between atoms: _111  and  _112
REMARK   50  A    between atoms: _115  and  _117
REMARK   51  A    between atoms: _117  and  _118
REMARK   52  A    between atoms: _117  and  _120
REMARK   53  A    between atoms: _120  and  _121
REMARK   54  A    between atoms: _121  and  _122
REMARK   55  A    between atoms: _122  and  _123
REMARK   56  A    between atoms: _132  and  _134
REMARK   57  A    between atoms: _134  and  _135
REMARK   58  A    between atoms: _134  and  _137
REMARK   59  A    between atoms: _137  and  _138
REMARK   60  A    between atoms: _138  and  _139
REMARK   61  A    between atoms: _144  and  _146
REMARK   62  A    between atoms: _146  and  _147
REMARK   63  A    between atoms: _146  and  _149
REMARK   64  A    between atoms: _149  and  _150
REMARK   65  A    between atoms: _153  and  _155
REMARK   66  A    between atoms: _155  and  _156
REMARK   67  A    between atoms: _155  and  _158
REMARK   68  A    between atoms: _158  and  _159
REMARK   69  A    between atoms: _162  and  _164
REMARK   70  A    between atoms: _164  and  _165
REMARK   71  A    between atoms: _164  and  _167
REMARK   72  A    between atoms: _167  and  _168
REMARK   73  A    between atoms: _168  and  _169
REMARK   74  A    between atoms: _174  and  _176
REMARK   75  A    between atoms: _176  and  _177
REMARK   76  A    between atoms: _176  and  _179
REMARK   77  A    between atoms: _179  and  _180
REMARK   78  A    between atoms: _185  and  _186
REMARK   79  A    between atoms: _188  and  _190
REMARK   80  A    between atoms: _190  and  _191
REMARK   81  A    between atoms: _190  and  _193
REMARK   82  A    between atoms: _193  and  _194
REMARK   83  A    between atoms: _196  and  _198
REMARK   84  A    between atoms: _198  and  _199
REMARK   85  A    between atoms: _198  and  _201
REMARK   86  A    between atoms: _201  and  _202
REMARK   87  A    between atoms: _212  and  _214
REMARK   88  A    between atoms: _214  and  _215
REMARK   89  A    between atoms: _214  and  _217
REMARK   90  A    between atoms: _217  and  _218
REMARK   91  A    between atoms: _218  and  _219
REMARK   92  A    between atoms: _221  and  _223
REMARK   93  A    between atoms: _223  and  _224
REMARK   94  A    between atoms: _226  and  _228
REMARK   95  A    between atoms: _228  and  _229
REMARK   96  A    between atoms: _228  and  _231
REMARK   97  A    between atoms: _231  and  _232
REMARK   98  A    between atoms: _235  and  _237
REMARK   99  A    between atoms: _237  and  _238
REMARK  100  A    between atoms: _237  and  _240
REMARK  101  A    between atoms: _240  and  _241
REMARK  102  A    between atoms: _241  and  _242
REMARK  103  A    between atoms: _244  and  _246
REMARK  104  A    between atoms: _246  and  _247
REMARK  105  A    between atoms: _246  and  _249
REMARK  106  A    between atoms: _252  and  _254
REMARK  107  A    between atoms: _254  and  _255
REMARK  108  A    between atoms: _254  and  _257
REMARK  109  A    between atoms: _257  and  _258
REMARK  110  A    between atoms: _264  and  _266
REMARK  111  A    between atoms: _266  and  _267
REMARK  112  A    between atoms: _270  and  _272
REMARK  113  A    between atoms: _272  and  _273
REMARK  114  A    between atoms: _272  and  _275
REMARK  115  A    between atoms: _275  and  _276
REMARK  116  A    between atoms: _276  and  _277
REMARK  117  A    between atoms: _279  and  _281
REMARK  118  A    between atoms: _281  and  _282
REMARK  119  A    between atoms: _284  and  _286
REMARK  120  A    between atoms: _286  and  _287
REMARK  121  A    between atoms: _286  and  _289
REMARK  122  A    between atoms: _289  and  _290
REMARK  123  A    between atoms: _290  and  _291
REMARK  124  A    between atoms: _291  and  _292
REMARK  125  A    between atoms: _301  and  _303
REMARK  126  A    between atoms: _303  and  _304
REMARK  127  A    between atoms: _303  and  _306
REMARK  128  A    between atoms: _306  and  _307
REMARK  129  A    between atoms: _309  and  _311
REMARK  130  A    between atoms: _311  and  _312
REMARK  131  A    between atoms: _311  and  _314
REMARK  132  A    between atoms: _314  and  _315
REMARK  133  A    between atoms: _318  and  _320
REMARK  134  A    between atoms: _320  and  _321
REMARK  135  A    between atoms: _320  and  _323
REMARK  136  A    between atoms: _323  and  _324
REMARK  137  A    between atoms: _329  and  _330
REMARK  138  A    between atoms: _332  and  _334
REMARK  139  A    between atoms: _334  and  _335
REMARK  140  A    between atoms: _334  and  _337
REMARK  141  A    between atoms: _337  and  _338
REMARK  142  A    between atoms: _344  and  _346
REMARK  143  A    between atoms: _346  and  _347
REMARK  144  A    between atoms: _350  and  _352
REMARK  145  A    between atoms: _352  and  _353
REMARK  146  A    between atoms: _352  and  _355
REMARK  147  A    between atoms: _355  and  _356
REMARK  148  A    between atoms: _359  and  _361
REMARK  149  A    between atoms: _361  and  _362
REMARK  150  A    between atoms: _361  and  _364
REMARK  151  A    between atoms: _364  and  _365
REMARK  152  A    between atoms: _371  and  _373
REMARK  153  A    between atoms: _373  and  _374
REMARK  154  A    between atoms: _373  and  _376
REMARK  155  A    between atoms: _376  and  _377
REMARK  156  A    between atoms: _379  and  _381
REMARK  157  A    between atoms: _381  and  _382
REMARK  158  A    between atoms: _381  and  _384
REMARK  159  A    between atoms: _384  and  _385
REMARK  160  A    between atoms: _385  and  _386
REMARK  161  A    between atoms: _388  and  _390
REMARK  162  A    between atoms: _390  and  _391
REMARK  163  A    between atoms: _390  and  _393
REMARK  164  A    between atoms: _393  and  _394
REMARK  165  A    between atoms: _394  and  _395
REMARK  166  A    between atoms: _400  and  _402
REMARK  167  A    between atoms: _402  and  _403
REMARK  168  A    between atoms: _402  and  _405
REMARK  169  A    between atoms: _407  and  _409
REMARK  170  A    between atoms: _409  and  _410
REMARK  171  A    between atoms: _409  and  _412
REMARK  172  A    between atoms: _412  and  _413
REMARK  173  A    between atoms: _413  and  _414
REMARK  174  A    between atoms: _416  and  _418
REMARK  175  A    between atoms: _418  and  _419
REMARK  176  A    between atoms: _418  and  _421
REMARK  177  A    between atoms: _421  and  _422
REMARK  178  A    between atoms: _425  and  _427
REMARK  179  A    between atoms: _427  and  _428
REMARK  180  A    between atoms: _427  and  _430
REMARK  181  A    between atoms: _430  and  _431
REMARK  182  A    between atoms: _434  and  _436
REMARK  183  A    between atoms: _436  and  _437
REMARK  184  A    between atoms: _436  and  _439
REMARK  185  A    between atoms: _439  and  _440
REMARK  186  A    between atoms: _443  and  _445
REMARK  187  A    between atoms: _445  and  _446
REMARK  188  A    between atoms: _449  and  _451
REMARK  189  A    between atoms: _451  and  _452
REMARK  190  A    between atoms: _451  and  _454
REMARK  191  A    between atoms: _454  and  _455
REMARK  192  A    between atoms: _458  and  _460
REMARK  193  A    between atoms: _460  and  _461
REMARK  194  A    between atoms: _460  and  _463
REMARK  195  A    between atoms: _463  and  _464
REMARK  196  A    between atoms: _469  and  _471
REMARK  197  A    between atoms: _471  and  _472
REMARK  198  A    between atoms: _471  and  _474
REMARK  199  A    between atoms: _474  and  _475
REMARK  200  A    between atoms: _475  and  _476
REMARK  201  A    between atoms: _481  and  _483
REMARK  202  A    between atoms: _483  and  _484
REMARK  203  A    between atoms: _483  and  _486
REMARK  204  A    between atoms: _486  and  _487
REMARK  205  A    between atoms: _493  and  _495
REMARK  206  A    between atoms: _495  and  _496
REMARK  207  A    between atoms: _495  and  _498
REMARK  208  A    between atoms: _498  and  _499
REMARK  209  A    between atoms: _502  and  _504
REMARK  210  A    between atoms: _504  and  _505
REMARK  211  A    between atoms: _504  and  _507
REMARK  212  A    between atoms: _507  and  _508
REMARK  213  A    between atoms: _514  and  _516
REMARK  214  A    between atoms: _516  and  _517
REMARK  215  A    between atoms: _516  and  _519
REMARK  216  A    between atoms: _519  and  _520
REMARK  217  A    between atoms: _523  and  _525
REMARK  218  A    between atoms: _525  and  _526
REMARK  219  A    between atoms: _525  and  _528
REMARK  220  A    between atoms: _528  and  _529
REMARK  221  A    between atoms: _532  and  _534
REMARK  222  A    between atoms: _534  and  _535
REMARK  223  A    between atoms: _534  and  _537
REMARK  224  A    between atoms: _540  and  _542
REMARK  225  A    between atoms: _542  and  _543
REMARK  226  A    between atoms: _542  and  _545
REMARK  227  A    between atoms: _545  and  _546
REMARK  228  A    between atoms: _549  and  _551
REMARK  229  A    between atoms: _551  and  _552
REMARK  230  A    between atoms: _551  and  _554
REMARK  231  A    between atoms: _554  and  _555
REMARK  232  A    between atoms: _562  and  _563
REMARK  233  A    between atoms: _568  and  _570
REMARK  234  A    between atoms: _570  and  _571
REMARK  235  A    between atoms: _570  and  _573
REMARK  236  A    between atoms: _573  and  _574
REMARK  237  A    between atoms: _574  and  _575
REMARK  238  A    between atoms: _577  and  _579
REMARK  239  A    between atoms: _579  and  _580
REMARK  240  A    between atoms: _579  and  _582
REMARK  241  A    between atoms: _582  and  _583
REMARK  242  A    between atoms: _583  and  _584
REMARK  243  A    between atoms: _586  and  _588
REMARK  244  A    between atoms: _588  and  _589
REMARK  245  A    between atoms: _592  and  _594
REMARK  246  A    between atoms: _594  and  _595
REMARK  247  A    between atoms: _594  and  _597
REMARK  248  A    between atoms: _597  and  _598
REMARK  249  A    between atoms: _601  and  _603
REMARK  250  A    between atoms: _603  and  _604
REMARK  251  A    between atoms: _603  and  _606
REMARK  252  A    between atoms: _606  and  _607
REMARK  253  A    between atoms: _610  and  _612
REMARK  254  A    between atoms: _612  and  _613
REMARK  255  A    between atoms: _612  and  _615
REMARK  256  A    between atoms: _615  and  _616
REMARK  257  A    between atoms: _618  and  _620
REMARK  258  A    between atoms: _620  and  _621
REMARK  259  A    between atoms: _620  and  _623
REMARK  260  A    between atoms: _626  and  _628
REMARK  261  A    between atoms: _628  and  _629
REMARK  262  A    between atoms: _628  and  _631
REMARK  263  A    between atoms: _631  and  _632
REMARK  264  A    between atoms: _632  and  _633
REMARK  265  A    between atoms: _638  and  _640
REMARK  266  A    between atoms: _640  and  _641
REMARK  267  A    between atoms: _640  and  _643
REMARK  268  A    between atoms: _647  and  _648
REMARK  269  A    between atoms: _653  and  _655
REMARK  270  A    between atoms: _655  and  _656
REMARK  271  A    between atoms: _655  and  _658
REMARK  272  A    between atoms: _658  and  _659
REMARK                            x       y       z     vdW  Elec       q    Type
REMARK                         _______ _______ _______ _____ _____    ______ ____
ROOT
ATOM      1  CA  MET A   6      24.746   2.639  10.270  0.00  0.00    +0.149 C 
ENDROOT
BRANCH   1   3
ATOM      2  C   TRP A   5      25.440   4.433  11.765  0.00  0.00    +0.241 C 
ATOM      3  N   MET A   6      25.402   3.140  11.474  0.00  0.00    -0.297 N 
ATOM      4  H   MET A   6      25.853   2.463  12.122  0.00  0.00    +0.150 HD
ATOM      5  O   TRP A   5      24.918   5.282  11.047  0.00  0.00    -0.273 OA
BRANCH   2   6
ATOM      6  CA  TRP A   5      26.164   4.847  13.055  0.00  0.00    +0.153 C 
BRANCH   6   8
ATOM      7  C   SER A   4      24.276   4.224  14.490  0.00  0.00    +0.243 C 
ATOM      8  N   TRP A   5      25.587   4.346  14.299  0.00  0.00    -0.297 N 
ATOM      9  H   TRP A   5      26.229   4.072  15.070  0.00  0.00    +0.150 HD
ATOM     10  O   SER A   4      23.440   4.508  13.632  0.00  0.00    -0.273 OA
BRANCH   7  11
ATOM     11  CA  SER A   4      23.826   3.726  15.858  0.00  0.00    +0.178 C 
BRANCH  11  13
ATOM     12  C   TYR A   3      25.270   1.819  16.416  0.00  0.00    +0.241 C 
ATOM     13  N   SER A   4      24.842   3.054  16.664  0.00  0.00    -0.295 N 
ATOM     14  H   SER A   4      25.251   3.566  17.471  0.00  0.00    +0.150 HD
ATOM     15  O   TYR A   3      24.845   1.132  15.483  0.00  0.00    -0.273 OA
BRANCH  12  16
ATOM     16  CA  TYR A   3      26.331   1.272  17.376  0.00  0.00    +0.153 C 
BRANCH  16  18
ATOM     17  C   GLN A   2      28.215   2.629  16.634  0.00  0.00    +0.241 C 
ATOM     18  N   TYR A   3      27.382   2.271  17.614  0.00  0.00    -0.297 N 
ATOM     19  H   TYR A   3      27.478   2.703  18.555  0.00  0.00    +0.150 HD
ATOM     20  O   GLN A   2      28.138   2.149  15.499  0.00  0.00    -0.273 OA
BRANCH  17  21
ATOM     21  CA  GLN A   2      29.283   3.695  16.940  0.00  0.00    +0.149 C 
BRANCH  21  23
ATOM     22  C   ILE A   1      27.841   5.596  17.387  0.00  0.00    +0.238 C 
ATOM     23  N   GLN A   2      28.796   4.766  17.797  0.00  0.00    -0.297 N 
ATOM     24  H   GLN A   2      29.202   4.884  18.747  0.00  0.00    +0.150 HD
ATOM     25  O   ILE A   1      27.315   5.512  16.274  0.00  0.00    -0.274 OA
BRANCH  22  26
ATOM     26  CA  ILE A   1      27.401   6.676  18.375  0.00  0.00    +0.145 C 
BRANCH  26  27
ATOM     27  N   ILE A   1      27.197   6.118  19.704  0.00  0.00    -0.238 NA
ATOM     28  H   ILE A   1      27.809   6.424  20.487  0.00  0.00    +0.142 HD
ENDBRANCH  26  27
BRANCH  26  29
ATOM     29  CB  ILE A   1      28.452   7.813  18.382  0.00  0.00    +0.025 C 
ATOM     30  CG2 ILE A   1      28.802   8.207  16.943  0.00  0.00    +0.002 C 
BRANCH  29  31
ATOM     31  CG1 ILE A   1      27.888   9.026  19.123  0.00  0.00    +0.002 C 
ATOM     32  CD1 ILE A   1      28.871  10.141  19.323  0.00  0.00    +0.000 C 
ENDBRANCH  29  31
ENDBRANCH  26  29
ENDBRANCH  22  26
ENDBRANCH  21  23
BRANCH  21  33
ATOM     33  CB  GLN A   2      30.534   3.061  17.560  0.00  0.00    +0.039 C 
BRANCH  33  34
ATOM     34  CG  GLN A   2      31.676   4.066  17.759  0.00  0.00    +0.087 C 
BRANCH  34  35
ATOM     35  CD  GLN A   2      32.955   3.424  18.260  0.00  0.00    +0.219 C 
ATOM     36  OE1 GLN A   2      32.933   2.341  18.840  0.00  0.00    -0.275 OA
ATOM     37  NE2 GLN A   2      34.077   4.103  18.061  0.00  0.00    -0.329 N 
ATOM     38 HE21 GLN A   2      34.983   3.722  18.401  0.00  0.00    +0.145 HD
ATOM     39 HE22 GLN A   2      34.051   5.017  17.565  0.00  0.00    +0.145 HD
ENDBRANCH  34  35
ENDBRANCH  33  34
ENDBRANCH  21  33
ENDBRANCH  17  21
ENDBRANCH  16  18
BRANCH  16  40
ATOM     40  CB  TYR A   3      25.608   0.861  18.675  0.00  0.00    +0.055 C 
BRANCH  40  41
ATOM     41  CG  TYR A   3      26.461   0.242  19.773  0.00  0.00    -0.020 A 
ATOM     42  CD2 TYR A   3      26.229   0.559  21.112  0.00  0.00    -0.001 A 
ATOM     43  CE2 TYR A   3      26.984  -0.014  22.133  0.00  0.00    +0.036 A 
ATOM     44  CZ  TYR A   3      27.986  -0.911  21.821  0.00  0.00    +0.134 A 
ATOM     45  CE1 TYR A   3      28.238  -1.248  20.499  0.00  0.00    +0.036 A 
ATOM     46  CD1 TYR A   3      27.475  -0.672  19.481  0.00  0.00    -0.001 A 
BRANCH  44  47
ATOM     47  OH  TYR A   3      28.740  -1.455  22.835  0.00  0.00    -0.506 OA
ATOM     48  HH  TYR A   3      29.411  -2.074  22.451  0.00  0.00    +0.292 HD
ENDBRANCH  44  47
ENDBRANCH  40  41
ENDBRANCH  16  40
ENDBRANCH  12  16
ENDBRANCH  11  13
BRANCH  11  49
ATOM     49  CB  SER A   4      23.256   4.923  16.627  0.00  0.00    +0.166 C 
BRANCH  49  50
ATOM     50  OG  SER A   4      22.540   4.496  17.766  0.00  0.00    -0.380 OA
ATOM     51  H   SER A   4      22.183   5.285  18.245  0.00  0.00    +0.211 HD
ENDBRANCH  49  50
ENDBRANCH  11  49
ENDBRANCH   7  11
ENDBRANCH   6   8
BRANCH   6  52
ATOM     52  CB  TRP A   5      27.645   4.449  13.014  0.00  0.00    +0.057 C 
BRANCH  52  53
ATOM     53  CG  TRP A   5      28.434   4.926  11.833  0.00  0.00    -0.002 A 
ATOM     54  CD2 TRP A   5      29.736   4.474  11.458  0.00  0.00    +0.013 A 
ATOM     55  CE3 TRP A   5      30.623   3.524  11.987  0.00  0.00    +0.001 A 
ATOM     56  CZ3 TRP A   5      31.846   3.329  11.355  0.00  0.00    +0.000 A 
ATOM     57  CH2 TRP A   5      32.195   4.064  10.207  0.00  0.00    +0.001 A 
ATOM     58  CZ2 TRP A   5      31.345   5.000   9.668  0.00  0.00    +0.017 A 
ATOM     59  CE2 TRP A   5      30.116   5.197  10.303  0.00  0.00    +0.056 A 
ATOM     60  NE1 TRP A   5      29.089   6.051   9.992  0.00  0.00    -0.352 N 
ATOM     61  HE1 TRP A   5      29.074   6.715   9.192  0.00  0.00    +0.166 HD
ATOM     62  CD1 TRP A   5      28.079   5.882  10.917  0.00  0.00    +0.068 A 
ENDBRANCH  52  53
ENDBRANCH   6  52
ENDBRANCH   2   6
ENDBRANCH   1   3
BRANCH   1  63
ATOM     63  C   MET A   6      23.276   3.086  10.170  0.00  0.00    +0.241 C 
ATOM     64  N   GLY A   7      22.495   2.816  11.211  0.00  0.00    -0.295 N 
ATOM     65  H   GLY A   7      22.889   2.328  12.040  0.00  0.00    +0.150 HD
ATOM     66  O   MET A   6      22.862   3.666   9.168  0.00  0.00    -0.273 OA
BRANCH  64  67
ATOM     67  CA  GLY A   7      21.095   3.199  11.197  0.00  0.00    +0.176 C 
BRANCH  67  68
ATOM     68  C   GLY A   7      20.860   4.674  10.915  0.00  0.00    +0.243 C 
ATOM     69  N   LEU A   8      21.654   5.533  11.540  0.00  0.00    -0.297 N 
ATOM     70  H   LEU A   8      22.384   5.175  12.188  0.00  0.00    +0.150 HD
ATOM     71  O   GLY A   7      19.968   5.035  10.153  0.00  0.00    -0.273 OA
BRANCH  69  72
ATOM     72  CA  LEU A   8      21.522   6.964  11.336  0.00  0.00    +0.149 C 
BRANCH  72  73
ATOM     73  C   LEU A   8      21.733   7.329   9.867  0.00  0.00    +0.241 C 
ATOM     74  O   LEU A   8      20.982   8.129   9.312  0.00  0.00    -0.273 OA
ATOM     75  N   MET A   9      22.745   6.741   9.231  0.00  0.00    -0.297 N 
ATOM     76  H   MET A   9      23.353   6.070   9.742  0.00  0.00    +0.150 HD
BRANCH  75  77
ATOM     77  CA  MET A   9      23.009   7.030   7.823  0.00  0.00    +0.149 C 
BRANCH  77  78
ATOM     78  C   MET A   9      21.878   6.543   6.931  0.00  0.00    +0.241 C 
ATOM     79  N   VAL A  10      21.351   5.368   7.254  0.00  0.00    -0.297 N 
ATOM     80  H   VAL A  10      21.741   4.853   8.069  0.00  0.00    +0.150 HD
ATOM     81  O   MET A   9      21.494   7.221   5.976  0.00  0.00    -0.273 OA
BRANCH  79  82
ATOM     82  CA  VAL A  10      20.251   4.772   6.514  0.00  0.00    +0.149 C 
BRANCH  82  83
ATOM     83  C   VAL A  10      19.050   5.704   6.540  0.00  0.00    +0.241 C 
ATOM     84  N   PHE A  11      18.669   6.118   7.742  0.00  0.00    -0.297 N 
ATOM     85  H   PHE A  11      19.208   5.809   8.576  0.00  0.00    +0.150 HD
ATOM     86  O   VAL A  10      18.481   6.035   5.505  0.00  0.00    -0.273 OA
BRANCH  84  87
ATOM     87  CA  PHE A  11      17.519   6.991   7.928  0.00  0.00    +0.153 C 
BRANCH  87  88
ATOM     88  C   PHE A  11      17.671   8.321   7.204  0.00  0.00    +0.241 C 
ATOM     89  N   ALA A  12      18.831   8.954   7.367  0.00  0.00    -0.297 N 
ATOM     90  H   ALA A  12      19.558   8.520   7.970  0.00  0.00    +0.150 HD
ATOM     91  O   PHE A  11      16.754   8.758   6.516  0.00  0.00    -0.273 OA
BRANCH  89  92
ATOM     92  CA  ALA A  12      19.118  10.231   6.732  0.00  0.00    +0.149 C 
ATOM     93  CB  ALA A  12      20.447  10.799   7.263  0.00  0.00    +0.031 C 
BRANCH  92  94
ATOM     94  C   ALA A  12      19.167  10.100   5.206  0.00  0.00    +0.241 C 
ATOM     95  N   MET A  13      19.651   8.964   4.717  0.00  0.00    -0.297 N 
ATOM     96  H   MET A  13      19.965   8.220   5.372  0.00  0.00    +0.150 HD
ATOM     97  O   ALA A  12      18.762  11.011   4.484  0.00  0.00    -0.273 OA
BRANCH  95  98
ATOM     98  CA  MET A  13      19.751   8.738   3.277  0.00  0.00    +0.149 C 
BRANCH  98  99
ATOM     99  C   MET A  13      18.365   8.545   2.653  0.00  0.00    +0.241 C 
ATOM    100  N   GLY A  14      17.456   7.911   3.392  0.00  0.00    -0.296 N 
ATOM    101  H   GLY A  14      17.711   7.564   4.339  0.00  0.00    +0.150 HD
ATOM    102  O   MET A  13      18.121   8.979   1.526  0.00  0.00    -0.273 OA
BRANCH 100 103
ATOM    103  CA  GLY A  14      16.112   7.702   2.884  0.00  0.00    +0.163 C 
BRANCH 103 104
ATOM    104  C   GLY A  14      15.370   9.019   2.716  0.00  0.00    +0.229 C 
ATOM    105  O   GLY A  14      14.659   9.225   1.730  0.00  0.00    -0.286 OA
ENDBRANCH 103 104
ENDBRANCH 100 103
ENDBRANCH  98  99
BRANCH  98 106
ATOM    106  CB  MET A  13      20.650   7.522   3.006  0.00  0.00    +0.041 C 
BRANCH 106 107
ATOM    107  CG  MET A  13      21.066   7.334   1.547  0.00  0.00    +0.060 C 
BRANCH 107 108
ATOM    108  SD  MET A  13      19.820   6.516   0.526  0.00  0.00    -0.139 S 
ATOM    109  CE  MET A  13      20.065   4.811   1.009  0.00  0.00    +0.069 C 
ENDBRANCH 107 108
ENDBRANCH 106 107
ENDBRANCH  98 106
ENDBRANCH  95  98
ENDBRANCH  92  94
ENDBRANCH  89  92
ENDBRANCH  87  88
BRANCH  87 110
ATOM    110  CB  PHE A  11      17.296   7.242   9.416  0.00  0.00    +0.055 C 
BRANCH 110 111
ATOM    111  CG  PHE A  11      15.937   7.789   9.738  0.00  0.00    -0.020 A 
ATOM    112  CD2 PHE A  11      15.798   9.048  10.307  0.00  0.00    -0.004 A 
ATOM    113  CE2 PHE A  11      14.542   9.547  10.638  0.00  0.00    -0.000 A 
ATOM    114  CZ  PHE A  11      13.403   8.774  10.393  0.00  0.00    -0.000 A 
ATOM    115  CE1 PHE A  11      13.532   7.518   9.822  0.00  0.00    -0.000 A 
ATOM    116  CD1 PHE A  11      14.797   7.031   9.497  0.00  0.00    -0.004 A 
ENDBRANCH 110 111
ENDBRANCH  87 110
ENDBRANCH  84  87
ENDBRANCH  82  83
BRANCH  82 117
ATOM    117  CB  VAL A  10      19.830   3.415   7.144  0.00  0.00    +0.027 C 
ATOM    118  CG2 VAL A  10      20.881   2.346   6.841  0.00  0.00    +0.002 C 
ATOM    119  CG1 VAL A  10      18.474   2.991   6.606  0.00  0.00    +0.002 C 
ENDBRANCH  82 117
ENDBRANCH  79  82
ENDBRANCH  77  78
BRANCH  77 120
ATOM    120  CB  MET A   9      24.328   6.395   7.371  0.00  0.00    +0.041 C 
BRANCH 120 121
ATOM    121  CG  MET A   9      25.543   6.977   8.058  0.00  0.00    +0.060 C 
BRANCH 121 122
ATOM    122  SD  MET A   9      27.079   6.533   7.244  0.00  0.00    -0.139 S 
ATOM    123  CE  MET A   9      27.069   4.775   7.443  0.00  0.00    +0.069 C 
ENDBRANCH 121 122
ENDBRANCH 120 121
ENDBRANCH  77 120
ENDBRANCH  75  77
ENDBRANCH  72  73
BRANCH  72 124
ATOM    124  CB  LEU A   8      22.520   7.714  12.222  0.00  0.00    +0.029 C 
BRANCH 124 125
ATOM    125  CG  LEU A   8      22.255   7.652  13.729  0.00  0.00    +0.002 C 
ATOM    126  CD2 LEU A   8      23.491   8.152  14.477  0.00  0.00    +0.000 C 
ATOM    127  CD1 LEU A   8      21.029   8.493  14.073  0.00  0.00    +0.000 C 
ENDBRANCH 124 125
ENDBRANCH  72 124
ENDBRANCH  69  72
ENDBRANCH  67  68
ENDBRANCH  64  67
ENDBRANCH   1  63
BRANCH   1 128
ATOM    128  CB  MET A   6      24.828   1.106  10.244  0.00  0.00    +0.041 C 
BRANCH 128 129
ATOM    129  CG  MET A   6      24.304   0.473   8.955  0.00  0.00    +0.060 C 
BRANCH 129 130
ATOM    130  SD  MET A   6      25.314   0.892   7.512  0.00  0.00    -0.139 S 
ATOM    131  CE  MET A   6      26.591  -0.372   7.598  0.00  0.00    +0.069 C 
ENDBRANCH 129 130
ENDBRANCH 128 129
ENDBRANCH   1 128
TORSDOF 54
REMARK  Name = ../refined-set-2016/3b65/3b65_pocket.pdb
REMARK  272 active torsions:
REMARK  status: ('A' for Active; 'I' for Inactive)
REMARK    1  A    between atoms: _1  and  _3
REMARK    2  A    between atoms: _3  and  _4
REMARK    3  A    between atoms: _3  and  _6
REMARK    4  A    between atoms: _9  and  _11
REMARK    5  A    between atoms: _11  and  _12
REMARK    6  A    between atoms: _15  and  _17
REMARK    7  A    between atoms: _17  and  _18
REMARK    8  A    between atoms: _17  and  _20
REMARK    9  A    between atoms: _20  and  _21
REMARK   10  A    between atoms: _27  and  _29
REMARK   11  A    between atoms: _29  and  _30
REMARK   12  A    between atoms: _29  and  _32
REMARK   13  A    between atoms: _32  and  _33
REMARK   14  A    between atoms: _36  and  _38
REMARK   15  A    between atoms: _38  and  _39
REMARK   16  A    between atoms: _38  and  _41
REMARK   17  A    between atoms: _41  and  _42
REMARK   18  A    between atoms: _45  and  _47
REMARK   19  A    between atoms: _47  and  _48
REMARK   20  A    between atoms: _47  and  _50
REMARK   21  A    between atoms: _50  and  _51
REMARK   22  A    between atoms: _53  and  _55
REMARK   23  A    between atoms: _55  and  _56
REMARK   24  A    between atoms: _55  and  _58
REMARK   25  A    between atoms: _58  and  _59
REMARK   26  A    between atoms: _61  and  _63
REMARK   27  A    between atoms: _63  and  _64
REMARK   28  A    between atoms: _63  and  _66
REMARK   29  A    between atoms: _66  and  _67
REMARK   30  A    between atoms: _70  and  _72
REMARK   31  A    between atoms: _72  and  _73
REMARK   32  A    between atoms: _72  and  _75
REMARK   33  A    between atoms: _75  and  _76
REMARK   34  A    between atoms: _81  and  _83
REMARK   35  A    between atoms: _83  and  _84
REMARK   36  A    between atoms: _83  and  _86
REMARK   37  A    between atoms: _86  and  _87
REMARK   38  A    between atoms: _87  and  _88
REMARK   39  A    between atoms: _91  and  _93
REMARK   40  A    between atoms: _93  and  _94
REMARK   41  A    between atoms: _93  and  _96
REMARK   42  A    between atoms: _96  and  _97
REMARK   43  A    between atoms: _100  and  _102
REMARK   44  A    between atoms: _102  and  _103
REMARK   45  A    between atoms: _105  and  _107
REMARK   46  A    between atoms: _107  and  _108
REMARK   47  A    between atoms: _107  and  _110
REMARK   48  A    between atoms: _110  and  _111
REMARK   49  A    between atoms: _111  and  _112
REMARK   50  A    between atoms: _115  and  _117
REMARK   51  A    between atoms: _117  and  _118
REMARK   52  A    between atoms: _117  and  _120
REMARK   53  A    between atoms: _120  and  _121
REMARK   54  A    between atoms: _121  and  _122
REMARK   55  A    between atoms: _122  and  _123
REMARK   56  A    between atoms: _132  and  _134
REMARK   57  A    between atoms: _134  and  _135
REMARK   58  A    between atoms: _134  and  _137
REMARK   59  A    between atoms: _137  and  _138
REMARK   60  A    between atoms: _138  and  _139
REMARK   61  A    between atoms: _144  and  _146
REMARK   62  A    between atoms: _146  and  _147
REMARK   63  A    between atoms: _146  and  _149
REMARK   64  A    between atoms: _149  and  _150
REMARK   65  A    between atoms: _153  and  _155
REMARK   66  A    between atoms: _155  and  _156
REMARK   67  A    between atoms: _155  and  _158
REMARK   68  A    between atoms: _158  and  _159
REMARK   69  A    between atoms: _162  and  _164
REMARK   70  A    between atoms: _164  and  _165
REMARK   71  A    between atoms: _164  and  _167
REMARK   72  A    between atoms: _167  and  _168
REMARK   73  A    between atoms: _168  and  _169
REMARK   74  A    between atoms: _174  and  _176
REMARK   75  A    between atoms: _176  and  _177
REMARK   76  A    between atoms: _176  and  _179
REMARK   77  A    between atoms: _179  and  _180
REMARK   78  A    between atoms: _185  and  _186
REMARK   79  A    between atoms: _188  and  _190
REMARK   80  A    between atoms: _190  and  _191
REMARK   81  A    between atoms: _190  and  _193
REMARK   82  A    between atoms: _193  and  _194
REMARK   83  A    between atoms: _196  and  _198
REMARK   84  A    between atoms: _198  and  _199
REMARK   85  A    between atoms: _198  and  _201
REMARK   86  A    between atoms: _201  and  _202
REMARK   87  A    between atoms: _212  and  _214
REMARK   88  A    between atoms: _214  and  _215
REMARK   89  A    between atoms: _214  and  _217
REMARK   90  A    between atoms: _217  and  _218
REMARK   91  A    between atoms: _218  and  _219
REMARK   92  A    between atoms: _221  and  _223
REMARK   93  A    between atoms: _223  and  _224
REMARK   94  A    between atoms: _226  and  _228
REMARK   95  A    between atoms: _228  and  _229
REMARK   96  A    between atoms: _228  and  _231
REMARK   97  A    between atoms: _231  and  _232
REMARK   98  A    between atoms: _235  and  _237
REMARK   99  A    between atoms: _237  and  _238
REMARK  100  A    between atoms: _237  and  _240
REMARK  101  A    between atoms: _240  and  _241
REMARK  102  A    between atoms: _241  and  _242
REMARK  103  A    between atoms: _244  and  _246
REMARK  104  A    between atoms: _246  and  _247
REMARK  105  A    between atoms: _246  and  _249
REMARK  106  A    between atoms: _252  and  _254
REMARK  107  A    between atoms: _254  and  _255
REMARK  108  A    between atoms: _254  and  _257
REMARK  109  A    between atoms: _257  and  _258
REMARK  110  A    between atoms: _264  and  _266
REMARK  111  A    between atoms: _266  and  _267
REMARK  112  A    between atoms: _270  and  _272
REMARK  113  A    between atoms: _272  and  _273
REMARK  114  A    between atoms: _272  and  _275
REMARK  115  A    between atoms: _275  and  _276
REMARK  116  A    between atoms: _276  and  _277
REMARK  117  A    between atoms: _279  and  _281
REMARK  118  A    between atoms: _281  and  _282
REMARK  119  A    between atoms: _284  and  _286
REMARK  120  A    between atoms: _286  and  _287
REMARK  121  A    between atoms: _286  and  _289
REMARK  122  A    between atoms: _289  and  _290
REMARK  123  A    between atoms: _290  and  _291
REMARK  124  A    between atoms: _291  and  _292
REMARK  125  A    between atoms: _301  and  _303
REMARK  126  A    between atoms: _303  and  _304
REMARK  127  A    between atoms: _303  and  _306
REMARK  128  A    between atoms: _306  and  _307
REMARK  129  A    between atoms: _309  and  _311
REMARK  130  A    between atoms: _311  and  _312
REMARK  131  A    between atoms: _311  and  _314
REMARK  132  A    between atoms: _314  and  _315
REMARK  133  A    between atoms: _318  and  _320
REMARK  134  A    between atoms: _320  and  _321
REMARK  135  A    between atoms: _320  and  _323
REMARK  136  A    between atoms: _323  and  _324
REMARK  137  A    between atoms: _329  and  _330
REMARK  138  A    between atoms: _332  and  _334
REMARK  139  A    between atoms: _334  and  _335
REMARK  140  A    between atoms: _334  and  _337
REMARK  141  A    between atoms: _337  and  _338
REMARK  142  A    between atoms: _344  and  _346
REMARK  143  A    between atoms: _346  and  _347
REMARK  144  A    between atoms: _350  and  _352
REMARK  145  A    between atoms: _352  and  _353
REMARK  146  A    between atoms: _352  and  _355
REMARK  147  A    between atoms: _355  and  _356
REMARK  148  A    between atoms: _359  and  _361
REMARK  149  A    between atoms: _361  and  _362
REMARK  150  A    between atoms: _361  and  _364
REMARK  151  A    between atoms: _364  and  _365
REMARK  152  A    between atoms: _371  and  _373
REMARK  153  A    between atoms: _373  and  _374
REMARK  154  A    between atoms: _373  and  _376
REMARK  155  A    between atoms: _376  and  _377
REMARK  156  A    between atoms: _379  and  _381
REMARK  157  A    between atoms: _381  and  _382
REMARK  158  A    between atoms: _381  and  _384
REMARK  159  A    between atoms: _384  and  _385
REMARK  160  A    between atoms: _385  and  _386
REMARK  161  A    between atoms: _388  and  _390
REMARK  162  A    between atoms: _390  and  _391
REMARK  163  A    between atoms: _390  and  _393
REMARK  164  A    between atoms: _393  and  _394
REMARK  165  A    between atoms: _394  and  _395
REMARK  166  A    between atoms: _400  and  _402
REMARK  167  A    between atoms: _402  and  _403
REMARK  168  A    between atoms: _402  and  _405
REMARK  169  A    between atoms: _407  and  _409
REMARK  170  A    between atoms: _409  and  _410
REMARK  171  A    between atoms: _409  and  _412
REMARK  172  A    between atoms: _412  and  _413
REMARK  173  A    between atoms: _413  and  _414
REMARK  174  A    between atoms: _416  and  _418
REMARK  175  A    between atoms: _418  and  _419
REMARK  176  A    between atoms: _418  and  _421
REMARK  177  A    between atoms: _421  and  _422
REMARK  178  A    between atoms: _425  and  _427
REMARK  179  A    between atoms: _427  and  _428
REMARK  180  A    between atoms: _427  and  _430
REMARK  181  A    between atoms: _430  and  _431
REMARK  182  A    between atoms: _434  and  _436
REMARK  183  A    between atoms: _436  and  _437
REMARK  184  A    between atoms: _436  and  _439
REMARK  185  A    between atoms: _439  and  _440
REMARK  186  A    between atoms: _443  and  _445
REMARK  187  A    between atoms: _445  and  _446
REMARK  188  A    between atoms: _449  and  _451
REMARK  189  A    between atoms: _451  and  _452
REMARK  190  A    between atoms: _451  and  _454
REMARK  191  A    between atoms: _454  and  _455
REMARK  192  A    between atoms: _458  and  _460
REMARK  193  A    between atoms: _460  and  _461
REMARK  194  A    between atoms: _460  and  _463
REMARK  195  A    between atoms: _463  and  _464
REMARK  196  A    between atoms: _469  and  _471
REMARK  197  A    between atoms: _471  and  _472
REMARK  198  A    between atoms: _471  and  _474
REMARK  199  A    between atoms: _474  and  _475
REMARK  200  A    between atoms: _475  and  _476
REMARK  201  A    between atoms: _481  and  _483
REMARK  202  A    between atoms: _483  and  _484
REMARK  203  A    between atoms: _483  and  _486
REMARK  204  A    between atoms: _486  and  _487
REMARK  205  A    between atoms: _493  and  _495
REMARK  206  A    between atoms: _495  and  _496
REMARK  207  A    between atoms: _495  and  _498
REMARK  208  A    between atoms: _498  and  _499
REMARK  209  A    between atoms: _502  and  _504
REMARK  210  A    between atoms: _504  and  _505
REMARK  211  A    between atoms: _504  and  _507
REMARK  212  A    between atoms: _507  and  _508
REMARK  213  A    between atoms: _514  and  _516
REMARK  214  A    between atoms: _516  and  _517
REMARK  215  A    between atoms: _516  and  _519
REMARK  216  A    between atoms: _519  and  _520
REMARK  217  A    between atoms: _523  and  _525
REMARK  218  A    between atoms: _525  and  _526
REMARK  219  A    between atoms: _525  and  _528
REMARK  220  A    between atoms: _528  and  _529
REMARK  221  A    between atoms: _532  and  _534
REMARK  222  A    between atoms: _534  and  _535
REMARK  223  A    between atoms: _534  and  _537
REMARK  224  A    between atoms: _540  and  _542
REMARK  225  A    between atoms: _542  and  _543
REMARK  226  A    between atoms: _542  and  _545
REMARK  227  A    between atoms: _545  and  _546
REMARK  228  A    between atoms: _549  and  _551
REMARK  229  A    between atoms: _551  and  _552
REMARK  230  A    between atoms: _551  and  _554
REMARK  231  A    between atoms: _554  and  _555
REMARK  232  A    between atoms: _562  and  _563
REMARK  233  A    between atoms: _568  and  _570
REMARK  234  A    between atoms: _570  and  _571
REMARK  235  A    between atoms: _570  and  _573
REMARK  236  A    between atoms: _573  and  _574
REMARK  237  A    between atoms: _574  and  _575
REMARK  238  A    between atoms: _577  and  _579
REMARK  239  A    between atoms: _579  and  _580
REMARK  240  A    between atoms: _579  and  _582
REMARK  241  A    between atoms: _582  and  _583
REMARK  242  A    between atoms: _583  and  _584
REMARK  243  A    between atoms: _586  and  _588
REMARK  244  A    between atoms: _588  and  _589
REMARK  245  A    between atoms: _592  and  _594
REMARK  246  A    between atoms: _594  and  _595
REMARK  247  A    between atoms: _594  and  _597
REMARK  248  A    between atoms: _597  and  _598
REMARK  249  A    between atoms: _601  and  _603
REMARK  250  A    between atoms: _603  and  _604
REMARK  251  A    between atoms: _603  and  _606
REMARK  252  A    between atoms: _606  and  _607
REMARK  253  A    between atoms: _610  and  _612
REMARK  254  A    between atoms: _612  and  _613
REMARK  255  A    between atoms: _612  and  _615
REMARK  256  A    between atoms: _615  and  _616
REMARK  257  A    between atoms: _618  and  _620
REMARK  258  A    between atoms: _620  and  _621
REMARK  259  A    between atoms: _620  and  _623
REMARK  260  A    between atoms: _626  and  _628
REMARK  261  A    between atoms: _628  and  _629
REMARK  262  A    between atoms: _628  and  _631
REMARK  263  A    between atoms: _631  and  _632
REMARK  264  A    between atoms: _632  and  _633
REMARK  265  A    between atoms: _638  and  _640
REMARK  266  A    between atoms: _640  and  _641
REMARK  267  A    between atoms: _640  and  _643
REMARK  268  A    between atoms: _647  and  _648
REMARK  269  A    between atoms: _653  and  _655
REMARK  270  A    between atoms: _655  and  _656
REMARK  271  A    between atoms: _655  and  _658
REMARK  272  A    between atoms: _658  and  _659
REMARK                            x       y       z     vdW  Elec       q    Type
REMARK                         _______ _______ _______ _____ _____    ______ ____
ROOT
ATOM      1  CA  ARG A   1      17.392  12.730   1.168  0.00  0.00    +0.145 C 
ENDROOT
BRANCH   1   2
ATOM      2  C   ARG A   1      16.925  12.142  -0.152  0.00  0.00    +0.238 C 
ATOM      3  N   SER A   2      16.807  10.818  -0.204  0.00  0.00    -0.296 N 
ATOM      4  H   SER A   2      17.035  10.248   0.636  0.00  0.00    +0.150 HD
ATOM      5  O   ARG A   1      16.693  12.874  -1.112  0.00  0.00    -0.274 OA
BRANCH   3   6
ATOM      6  CA  SER A   2      16.362  10.157  -1.422  0.00  0.00    +0.166 C 
BRANCH   6   7
ATOM      7  C   SER A   2      14.949  10.621  -1.732  0.00  0.00    +0.229 C 
ATOM      8  O   SER A   2      14.613  10.912  -2.881  0.00  0.00    -0.286 OA
ENDBRANCH   6   7
BRANCH   6   9
ATOM      9  CB  SER A   2      16.387   8.637  -1.257  0.00  0.00    +0.165 C 
BRANCH   9  10
ATOM     10  OG  SER A   2      17.714   8.147  -1.290  0.00  0.00    -0.380 OA
ATOM     11  H   SER A   2      18.234   8.556  -0.554  0.00  0.00    +0.211 HD
ENDBRANCH   9  10
ENDBRANCH   6   9
ENDBRANCH   3   6
ENDBRANCH   1   2
BRANCH   1  12
ATOM     12  N   ARG A   1      16.765  12.011   2.274  0.00  0.00    -0.238 NA
ATOM     13  H   ARG A   1      17.360  11.466   2.930  0.00  0.00    +0.142 HD
ENDBRANCH   1  12
BRANCH   1  14
ATOM     14  CB  ARG A   1      18.919  12.629   1.202  0.00  0.00    +0.030 C 
BRANCH  14  15
ATOM     15  CG  ARG A   1      19.604  13.394   2.297  0.00  0.00    +0.045 C 
BRANCH  15  16
ATOM     16  CD  ARG A   1      21.097  13.525   1.994  0.00  0.00    +0.174 C 
BRANCH  16  17
ATOM     17  NE  ARG A   1      21.783  12.234   1.886  0.00  0.00    -0.265 N 
ATOM     18  CZ  ARG A   1      22.253  11.532   2.916  0.00  0.00    +0.342 C 
ATOM     19  NH2 ARG A   1      22.122  11.980   4.157  0.00  0.00    -0.292 N 
ATOM     20 HH21 ARG A   1      22.493  11.423   4.953  0.00  0.00    +0.255 HD
ATOM     21 HH22 ARG A   1      21.648  12.889   4.335  0.00  0.00    +0.255 HD
ATOM     22  NH1 ARG A   1      22.869  10.377   2.700  0.00  0.00    -0.292 N 
ATOM     23 HH11 ARG A   1      23.237   9.826   3.502  0.00  0.00    +0.255 HD
ATOM     24 HH12 ARG A   1      22.984  10.022   1.729  0.00  0.00    +0.255 HD
ATOM     25  HE  ARG A   1      21.912  11.836   0.934  0.00  0.00    +0.259 HD
ENDBRANCH  16  17
ENDBRANCH  15  16
ENDBRANCH  14  15
ENDBRANCH   1  14
TORSDOF 10
REMARK  Name = ../refined-set-2016/3b65/3b65_pocket.pdb
REMARK  272 active torsions:
REMARK  status: ('A' for Active; 'I' for Inactive)
REMARK    1  A    between atoms: _1  and  _3
REMARK    2  A    between atoms: _3  and  _4
REMARK    3  A    between atoms: _3  and  _6
REMARK    4  A    between atoms: _9  and  _11
REMARK    5  A    between atoms: _11  and  _12
REMARK    6  A    between atoms: _15  and  _17
REMARK    7  A    between atoms: _17  and  _18
REMARK    8  A    between atoms: _17  and  _20
REMARK    9  A    between atoms: _20  and  _21
REMARK   10  A    between atoms: _27  and  _29
REMARK   11  A    between atoms: _29  and  _30
REMARK   12  A    between atoms: _29  and  _32
REMARK   13  A    between atoms: _32  and  _33
REMARK   14  A    between atoms: _36  and  _38
REMARK   15  A    between atoms: _38  and  _39
REMARK   16  A    between atoms: _38  and  _41
REMARK   17  A    between atoms: _41  and  _42
REMARK   18  A    between atoms: _45  and  _47
REMARK   19  A    between atoms: _47  and  _48
REMARK   20  A    between atoms: _47  and  _50
REMARK   21  A    between atoms: _50  and  _51
REMARK   22  A    between atoms: _53  and  _55
REMARK   23  A    between atoms: _55  and  _56
REMARK   24  A    between atoms: _55  and  _58
REMARK   25  A    between atoms: _58  and  _59
REMARK   26  A    between atoms: _61  and  _63
REMARK   27  A    between atoms: _63  and  _64
REMARK   28  A    between atoms: _63  and  _66
REMARK   29  A    between atoms: _66  and  _67
REMARK   30  A    between atoms: _70  and  _72
REMARK   31  A    between atoms: _72  and  _73
REMARK   32  A    between atoms: _72  and  _75
REMARK   33  A    between atoms: _75  and  _76
REMARK   34  A    between atoms: _81  and  _83
REMARK   35  A    between atoms: _83  and  _84
REMARK   36  A    between atoms: _83  and  _86
REMARK   37  A    between atoms: _86  and  _87
REMARK   38  A    between atoms: _87  and  _88
REMARK   39  A    between atoms: _91  and  _93
REMARK   40  A    between atoms: _93  and  _94
REMARK   41  A    between atoms: _93  and  _96
REMARK   42  A    between atoms: _96  and  _97
REMARK   43  A    between atoms: _100  and  _102
REMARK   44  A    between atoms: _102  and  _103
REMARK   45  A    between atoms: _105  and  _107
REMARK   46  A    between atoms: _107  and  _108
REMARK   47  A    between atoms: _107  and  _110
REMARK   48  A    between atoms: _110  and  _111
REMARK   49  A    between atoms: _111  and  _112
REMARK   50  A    between atoms: _115  and  _117
REMARK   51  A    between atoms: _117  and  _118
REMARK   52  A    between atoms: _117  and  _120
REMARK   53  A    between atoms: _120  and  _121
REMARK   54  A    between atoms: _121  and  _122
REMARK   55  A    between atoms: _122  and  _123
REMARK   56  A    between atoms: _132  and  _134
REMARK   57  A    between atoms: _134  and  _135
REMARK   58  A    between atoms: _134  and  _137
REMARK   59  A    between atoms: _137  and  _138
REMARK   60  A    between atoms: _138  and  _139
REMARK   61  A    between atoms: _144  and  _146
REMARK   62  A    between atoms: _146  and  _147
REMARK   63  A    between atoms: _146  and  _149
REMARK   64  A    between atoms: _149  and  _150
REMARK   65  A    between atoms: _153  and  _155
REMARK   66  A    between atoms: _155  and  _156
REMARK   67  A    between atoms: _155  and  _158
REMARK   68  A    between atoms: _158  and  _159
REMARK   69  A    between atoms: _162  and  _164
REMARK   70  A    between atoms: _164  and  _165
REMARK   71  A    between atoms: _164  and  _167
REMARK   72  A    between atoms: _167  and  _168
REMARK   73  A    between atoms: _168  and  _169
REMARK   74  A    between atoms: _174  and  _176
REMARK   75  A    between atoms: _176  and  _177
REMARK   76  A    between atoms: _176  and  _179
REMARK   77  A    between atoms: _179  and  _180
REMARK   78  A    between atoms: _185  and  _186
REMARK   79  A    between atoms: _188  and  _190
REMARK   80  A    between atoms: _190  and  _191
REMARK   81  A    between atoms: _190  and  _193
REMARK   82  A    between atoms: _193  and  _194
REMARK   83  A    between atoms: _196  and  _198
REMARK   84  A    between atoms: _198  and  _199
REMARK   85  A    between atoms: _198  and  _201
REMARK   86  A    between atoms: _201  and  _202
REMARK   87  A    between atoms: _212  and  _214
REMARK   88  A    between atoms: _214  and  _215
REMARK   89  A    between atoms: _214  and  _217
REMARK   90  A    between atoms: _217  and  _218
REMARK   91  A    between atoms: _218  and  _219
REMARK   92  A    between atoms: _221  and  _223
REMARK   93  A    between atoms: _223  and  _224
REMARK   94  A    between atoms: _226  and  _228
REMARK   95  A    between atoms: _228  and  _229
REMARK   96  A    between atoms: _228  and  _231
REMARK   97  A    between atoms: _231  and  _232
REMARK   98  A    between atoms: _235  and  _237
REMARK   99  A    between atoms: _237  and  _238
REMARK  100  A    between atoms: _237  and  _240
REMARK  101  A    between atoms: _240  and  _241
REMARK  102  A    between atoms: _241  and  _242
REMARK  103  A    between atoms: _244  and  _246
REMARK  104  A    between atoms: _246  and  _247
REMARK  105  A    between atoms: _246  and  _249
REMARK  106  A    between atoms: _252  and  _254
REMARK  107  A    between atoms: _254  and  _255
REMARK  108  A    between atoms: _254  and  _257
REMARK  109  A    between atoms: _257  and  _258
REMARK  110  A    between atoms: _264  and  _266
REMARK  111  A    between atoms: _266  and  _267
REMARK  112  A    between atoms: _270  and  _272
REMARK  113  A    between atoms: _272  and  _273
REMARK  114  A    between atoms: _272  and  _275
REMARK  115  A    between atoms: _275  and  _276
REMARK  116  A    between atoms: _276  and  _277
REMARK  117  A    between atoms: _279  and  _281
REMARK  118  A    between atoms: _281  and  _282
REMARK  119  A    between atoms: _284  and  _286
REMARK  120  A    between atoms: _286  and  _287
REMARK  121  A    between atoms: _286  and  _289
REMARK  122  A    between atoms: _289  and  _290
REMARK  123  A    between atoms: _290  and  _291
REMARK  124  A    between atoms: _291  and  _292
REMARK  125  A    between atoms: _301  and  _303
REMARK  126  A    between atoms: _303  and  _304
REMARK  127  A    between atoms: _303  and  _306
REMARK  128  A    between atoms: _306  and  _307
REMARK  129  A    between atoms: _309  and  _311
REMARK  130  A    between atoms: _311  and  _312
REMARK  131  A    between atoms: _311  and  _314
REMARK  132  A    between atoms: _314  and  _315
REMARK  133  A    between atoms: _318  and  _320
REMARK  134  A    between atoms: _320  and  _321
REMARK  135  A    between atoms: _320  and  _323
REMARK  136  A    between atoms: _323  and  _324
REMARK  137  A    between atoms: _329  and  _330
REMARK  138  A    between atoms: _332  and  _334
REMARK  139  A    between atoms: _334  and  _335
REMARK  140  A    between atoms: _334  and  _337
REMARK  141  A    between atoms: _337  and  _338
REMARK  142  A    between atoms: _344  and  _346
REMARK  143  A    between atoms: _346  and  _347
REMARK  144  A    between atoms: _350  and  _352
REMARK  145  A    between atoms: _352  and  _353
REMARK  146  A    between atoms: _352  and  _355
REMARK  147  A    between atoms: _355  and  _356
REMARK  148  A    between atoms: _359  and  _361
REMARK  149  A    between atoms: _361  and  _362
REMARK  150  A    between atoms: _361  and  _364
REMARK  151  A    between atoms: _364  and  _365
REMARK  152  A    between atoms: _371  and  _373
REMARK  153  A    between atoms: _373  and  _374
REMARK  154  A    between atoms: _373  and  _376
REMARK  155  A    between atoms: _376  and  _377
REMARK  156  A    between atoms: _379  and  _381
REMARK  157  A    between atoms: _381  and  _382
REMARK  158  A    between atoms: _381  and  _384
REMARK  159  A    between atoms: _384  and  _385
REMARK  160  A    between atoms: _385  and  _386
REMARK  161  A    between atoms: _388  and  _390
REMARK  162  A    between atoms: _390  and  _391
REMARK  163  A    between atoms: _390  and  _393
REMARK  164  A    between atoms: _393  and  _394
REMARK  165  A    between atoms: _394  and  _395
REMARK  166  A    between atoms: _400  and  _402
REMARK  167  A    between atoms: _402  and  _403
REMARK  168  A    between atoms: _402  and  _405
REMARK  169  A    between atoms: _407  and  _409
REMARK  170  A    between atoms: _409  and  _410
REMARK  171  A    between atoms: _409  and  _412
REMARK  172  A    between atoms: _412  and  _413
REMARK  173  A    between atoms: _413  and  _414
REMARK  174  A    between atoms: _416  and  _418
REMARK  175  A    between atoms: _418  and  _419
REMARK  176  A    between atoms: _418  and  _421
REMARK  177  A    between atoms: _421  and  _422
REMARK  178  A    between atoms: _425  and  _427
REMARK  179  A    between atoms: _427  and  _428
REMARK  180  A    between atoms: _427  and  _430
REMARK  181  A    between atoms: _430  and  _431
REMARK  182  A    between atoms: _434  and  _436
REMARK  183  A    between atoms: _436  and  _437
REMARK  184  A    between atoms: _436  and  _439
REMARK  185  A    between atoms: _439  and  _440
REMARK  186  A    between atoms: _443  and  _445
REMARK  187  A    between atoms: _445  and  _446
REMARK  188  A    between atoms: _449  and  _451
REMARK  189  A    between atoms: _451  and  _452
REMARK  190  A    between atoms: _451  and  _454
REMARK  191  A    between atoms: _454  and  _455
REMARK  192  A    between atoms: _458  and  _460
REMARK  193  A    between atoms: _460  and  _461
REMARK  194  A    between atoms: _460  and  _463
REMARK  195  A    between atoms: _463  and  _464
REMARK  196  A    between atoms: _469  and  _471
REMARK  197  A    between atoms: _471  and  _472
REMARK  198  A    between atoms: _471  and  _474
REMARK  199  A    between atoms: _474  and  _475
REMARK  200  A    between atoms: _475  and  _476
REMARK  201  A    between atoms: _481  and  _483
REMARK  202  A    between atoms: _483  and  _484
REMARK  203  A    between atoms: _483  and  _486
REMARK  204  A    between atoms: _486  and  _487
REMARK  205  A    between atoms: _493  and  _495
REMARK  206  A    between atoms: _495  and  _496
REMARK  207  A    between atoms: _495  and  _498
REMARK  208  A    between atoms: _498  and  _499
REMARK  209  A    between atoms: _502  and  _504
REMARK  210  A    between atoms: _504  and  _505
REMARK  211  A    between atoms: _504  and  _507
REMARK  212  A    between atoms: _507  and  _508
REMARK  213  A    between atoms: _514  and  _516
REMARK  214  A    between atoms: _516  and  _517
REMARK  215  A    between atoms: _516  and  _519
REMARK  216  A    between atoms: _519  and  _520
REMARK  217  A    between atoms: _523  and  _525
REMARK  218  A    between atoms: _525  and  _526
REMARK  219  A    between atoms: _525  and  _528
REMARK  220  A    between atoms: _528  and  _529
REMARK  221  A    between atoms: _532  and  _534
REMARK  222  A    between atoms: _534  and  _535
REMARK  223  A    between atoms: _534  and  _537
REMARK  224  A    between atoms: _540  and  _542
REMARK  225  A    between atoms: _542  and  _543
REMARK  226  A    between atoms: _542  and  _545
REMARK  227  A    between atoms: _545  and  _546
REMARK  228  A    between atoms: _549  and  _551
REMARK  229  A    between atoms: _551  and  _552
REMARK  230  A    between atoms: _551  and  _554
REMARK  231  A    between atoms: _554  and  _555
REMARK  232  A    between atoms: _562  and  _563
REMARK  233  A    between atoms: _568  and  _570
REMARK  234  A    between atoms: _570  and  _571
REMARK  235  A    between atoms: _570  and  _573
REMARK  236  A    between atoms: _573  and  _574
REMARK  237  A    between atoms: _574  and  _575
REMARK  238  A    between atoms: _577  and  _579
REMARK  239  A    between atoms: _579  and  _580
REMARK  240  A    between atoms: _579  and  _582
REMARK  241  A    between atoms: _582  and  _583
REMARK  242  A    between atoms: _583  and  _584
REMARK  243  A    between atoms: _586  and  _588
REMARK  244  A    between atoms: _588  and  _589
REMARK  245  A    between atoms: _592  and  _594
REMARK  246  A    between atoms: _594  and  _595
REMARK  247  A    between atoms: _594  and  _597
REMARK  248  A    between atoms: _597  and  _598
REMARK  249  A    between atoms: _601  and  _603
REMARK  250  A    between atoms: _603  and  _604
REMARK  251  A    between atoms: _603  and  _606
REMARK  252  A    between atoms: _606  and  _607
REMARK  253  A    between atoms: _610  and  _612
REMARK  254  A    between atoms: _612  and  _613
REMARK  255  A    between atoms: _612  and  _615
REMARK  256  A    between atoms: _615  and  _616
REMARK  257  A    between atoms: _618  and  _620
REMARK  258  A    between atoms: _620  and  _621
REMARK  259  A    between atoms: _620  and  _623
REMARK  260  A    between atoms: _626  and  _628
REMARK  261  A    between atoms: _628  and  _629
REMARK  262  A    between atoms: _628  and  _631
REMARK  263  A    between atoms: _631  and  _632
REMARK  264  A    between atoms: _632  and  _633
REMARK  265  A    between atoms: _638  and  _640
REMARK  266  A    between atoms: _640  and  _641
REMARK  267  A    between atoms: _640  and  _643
REMARK  268  A    between atoms: _647  and  _648
REMARK  269  A    between atoms: _653  and  _655
REMARK  270  A    between atoms: _655  and  _656
REMARK  271  A    between atoms: _655  and  _658
REMARK  272  A    between atoms: _658  and  _659
REMARK                            x       y       z     vdW  Elec       q    Type
REMARK                         _______ _______ _______ _____ _____    ______ ____
ROOT
ATOM      1  CA  TYR A   2      20.829   9.646  -2.672  0.00  0.00    +0.153 C 
ENDROOT
BRANCH   1   3
ATOM      2  C   LEU A   1      20.247   7.414  -3.477  0.00  0.00    +0.238 C 
ATOM      3  N   TYR A   2      19.948   8.487  -2.753  0.00  0.00    -0.297 N 
ATOM      4  H   TYR A   2      19.052   8.501  -2.224  0.00  0.00    +0.150 HD
ATOM      5  O   LEU A   1      21.288   7.301  -4.123  0.00  0.00    -0.274 OA
BRANCH   2   6
ATOM      6  CA  LEU A   1      19.212   6.299  -3.475  0.00  0.00    +0.145 C 
BRANCH   6   7
ATOM      7  N   LEU A   1      18.741   6.138  -4.844  0.00  0.00    -0.238 NA
ATOM      8  H   LEU A   1      19.220   5.470  -5.481  0.00  0.00    +0.142 HD
ENDBRANCH   6   7
BRANCH   6   9
ATOM      9  CB  LEU A   1      19.835   5.004  -2.964  0.00  0.00    +0.026 C 
BRANCH   9  10
ATOM     10  CG  LEU A   1      18.882   3.813  -2.847  0.00  0.00    +0.002 C 
ATOM     11  CD2 LEU A   1      17.742   4.141  -1.890  0.00  0.00    +0.000 C 
ATOM     12  CD1 LEU A   1      19.658   2.613  -2.366  0.00  0.00    +0.000 C 
ENDBRANCH   9  10
ENDBRANCH   6   9
ENDBRANCH   2   6
ENDBRANCH   1   3
BRANCH   1  13
ATOM     13  C   TYR A   2      21.854   9.507  -1.540  0.00  0.00    +0.241 C 
ATOM     14  O   TYR A   2      21.733  10.167  -0.504  0.00  0.00    -0.273 OA
ATOM     15  N   PHE A   3      22.857   8.650  -1.722  0.00  0.00    -0.297 N 
ATOM     16  H   PHE A   3      22.915   8.097  -2.601  0.00  0.00    +0.150 HD
BRANCH  15  17
ATOM     17  CA  PHE A   3      23.877   8.485  -0.687  0.00  0.00    +0.153 C 
BRANCH  17  18
ATOM     18  C   PHE A   3      24.625   9.803  -0.508  0.00  0.00    +0.241 C 
ATOM     19  O   PHE A   3      24.948  10.210   0.607  0.00  0.00    -0.273 OA
ATOM     20  N   ALA A   4      24.897  10.458  -1.629  0.00  0.00    -0.298 N 
ATOM     21  H   ALA A   4      24.604  10.037  -2.534  0.00  0.00    +0.150 HD
BRANCH  20  22
ATOM     22  CA  ALA A   4      25.587  11.740  -1.649  0.00  0.00    +0.137 C 
ATOM     23  CB  ALA A   4      27.075  11.545  -1.405  0.00  0.00    +0.030 C 
BRANCH  22  24
ATOM     24  C   ALA A   4      25.353  12.331  -3.025  0.00  0.00    +0.227 C 
ATOM     25  O   ALA A   4      24.985  11.610  -3.952  0.00  0.00    -0.286 OA
ENDBRANCH  22  24
ENDBRANCH  20  22
ENDBRANCH  17  18
BRANCH  17  26
ATOM     26  CB  PHE A   3      24.870   7.386  -1.060  0.00  0.00    +0.055 C 
BRANCH  26  27
ATOM     27  CG  PHE A   3      24.307   5.996  -0.985  0.00  0.00    -0.020 A 
ATOM     28  CD2 PHE A   3      24.318   5.293   0.219  0.00  0.00    -0.004 A 
ATOM     29  CE2 PHE A   3      23.839   3.981   0.288  0.00  0.00    -0.000 A 
ATOM     30  CZ  PHE A   3      23.344   3.366  -0.862  0.00  0.00    -0.000 A 
ATOM     31  CE1 PHE A   3      23.325   4.063  -2.069  0.00  0.00    -0.000 A 
ATOM     32  CD1 PHE A   3      23.805   5.373  -2.122  0.00  0.00    -0.004 A 
ENDBRANCH  26  27
ENDBRANCH  17  26
ENDBRANCH  15  17
ENDBRANCH   1  13
BRANCH   1  33
ATOM     33  CB  TYR A   2      19.980  10.903  -2.452  0.00  0.00    +0.055 C 
BRANCH  33  34
ATOM     34  CG  TYR A   2      20.597  12.189  -2.940  0.00  0.00    -0.020 A 
ATOM     35  CD2 TYR A   2      21.364  12.984  -2.086  0.00  0.00    -0.001 A 
ATOM     36  CE2 TYR A   2      21.921  14.177  -2.527  0.00  0.00    +0.036 A 
ATOM     37  CZ  TYR A   2      21.711  14.593  -3.831  0.00  0.00    +0.134 A 
ATOM     38  CE1 TYR A   2      20.957  13.822  -4.705  0.00  0.00    +0.036 A 
ATOM     39  CD1 TYR A   2      20.405  12.623  -4.254  0.00  0.00    -0.001 A 
BRANCH  37  40
ATOM     40  OH  TYR A   2      22.230  15.797  -4.242  0.00  0.00    -0.506 OA
ATOM     41  HH  TYR A   2      21.853  16.525  -3.687  0.00  0.00    +0.292 HD
ENDBRANCH  37  40
ENDBRANCH  33  34
ENDBRANCH   1  33
TORSDOF 15
REMARK  Name = ../refined-set-2016/3b65/3b65_pocket.pdb
REMARK  272 active torsions:
REMARK  status: ('A' for Active; 'I' for Inactive)
REMARK    1  A    between atoms: _1  and  _3
REMARK    2  A    between atoms: _3  and  _4
REMARK    3  A    between atoms: _3  and  _6
REMARK    4  A    between atoms: _9  and  _11
REMARK    5  A    between atoms: _11  and  _12
REMARK    6  A    between atoms: _15  and  _17
REMARK    7  A    between atoms: _17  and  _18
REMARK    8  A    between atoms: _17  and  _20
REMARK    9  A    between atoms: _20  and  _21
REMARK   10  A    between atoms: _27  and  _29
REMARK   11  A    between atoms: _29  and  _30
REMARK   12  A    between atoms: _29  and  _32
REMARK   13  A    between atoms: _32  and  _33
REMARK   14  A    between atoms: _36  and  _38
REMARK   15  A    between atoms: _38  and  _39
REMARK   16  A    between atoms: _38  and  _41
REMARK   17  A    between atoms: _41  and  _42
REMARK   18  A    between atoms: _45  and  _47
REMARK   19  A    between atoms: _47  and  _48
REMARK   20  A    between atoms: _47  and  _50
REMARK   21  A    between atoms: _50  and  _51
REMARK   22  A    between atoms: _53  and  _55
REMARK   23  A    between atoms: _55  and  _56
REMARK   24  A    between atoms: _55  and  _58
REMARK   25  A    between atoms: _58  and  _59
REMARK   26  A    between atoms: _61  and  _63
REMARK   27  A    between atoms: _63  and  _64
REMARK   28  A    between atoms: _63  and  _66
REMARK   29  A    between atoms: _66  and  _67
REMARK   30  A    between atoms: _70  and  _72
REMARK   31  A    between atoms: _72  and  _73
REMARK   32  A    between atoms: _72  and  _75
REMARK   33  A    between atoms: _75  and  _76
REMARK   34  A    between atoms: _81  and  _83
REMARK   35  A    between atoms: _83  and  _84
REMARK   36  A    between atoms: _83  and  _86
REMARK   37  A    between atoms: _86  and  _87
REMARK   38  A    between atoms: _87  and  _88
REMARK   39  A    between atoms: _91  and  _93
REMARK   40  A    between atoms: _93  and  _94
REMARK   41  A    between atoms: _93  and  _96
REMARK   42  A    between atoms: _96  and  _97
REMARK   43  A    between atoms: _100  and  _102
REMARK   44  A    between atoms: _102  and  _103
REMARK   45  A    between atoms: _105  and  _107
REMARK   46  A    between atoms: _107  and  _108
REMARK   47  A    between atoms: _107  and  _110
REMARK   48  A    between atoms: _110  and  _111
REMARK   49  A    between atoms: _111  and  _112
REMARK   50  A    between atoms: _115  and  _117
REMARK   51  A    between atoms: _117  and  _118
REMARK   52  A    between atoms: _117  and  _120
REMARK   53  A    between atoms: _120  and  _121
REMARK   54  A    between atoms: _121  and  _122
REMARK   55  A    between atoms: _122  and  _123
REMARK   56  A    between atoms: _132  and  _134
REMARK   57  A    between atoms: _134  and  _135
REMARK   58  A    between atoms: _134  and  _137
REMARK   59  A    between atoms: _137  and  _138
REMARK   60  A    between atoms: _138  and  _139
REMARK   61  A    between atoms: _144  and  _146
REMARK   62  A    between atoms: _146  and  _147
REMARK   63  A    between atoms: _146  and  _149
REMARK   64  A    between atoms: _149  and  _150
REMARK   65  A    between atoms: _153  and  _155
REMARK   66  A    between atoms: _155  and  _156
REMARK   67  A    between atoms: _155  and  _158
REMARK   68  A    between atoms: _158  and  _159
REMARK   69  A    between atoms: _162  and  _164
REMARK   70  A    between atoms: _164  and  _165
REMARK   71  A    between atoms: _164  and  _167
REMARK   72  A    between atoms: _167  and  _168
REMARK   73  A    between atoms: _168  and  _169
REMARK   74  A    between atoms: _174  and  _176
REMARK   75  A    between atoms: _176  and  _177
REMARK   76  A    between atoms: _176  and  _179
REMARK   77  A    between atoms: _179  and  _180
REMARK   78  A    between atoms: _185  and  _186
REMARK   79  A    between atoms: _188  and  _190
REMARK   80  A    between atoms: _190  and  _191
REMARK   81  A    between atoms: _190  and  _193
REMARK   82  A    between atoms: _193  and  _194
REMARK   83  A    between atoms: _196  and  _198
REMARK   84  A    between atoms: _198  and  _199
REMARK   85  A    between atoms: _198  and  _201
REMARK   86  A    between atoms: _201  and  _202
REMARK   87  A    between atoms: _212  and  _214
REMARK   88  A    between atoms: _214  and  _215
REMARK   89  A    between atoms: _214  and  _217
REMARK   90  A    between atoms: _217  and  _218
REMARK   91  A    between atoms: _218  and  _219
REMARK   92  A    between atoms: _221  and  _223
REMARK   93  A    between atoms: _223  and  _224
REMARK   94  A    between atoms: _226  and  _228
REMARK   95  A    between atoms: _228  and  _229
REMARK   96  A    between atoms: _228  and  _231
REMARK   97  A    between atoms: _231  and  _232
REMARK   98  A    between atoms: _235  and  _237
REMARK   99  A    between atoms: _237  and  _238
REMARK  100  A    between atoms: _237  and  _240
REMARK  101  A    between atoms: _240  and  _241
REMARK  102  A    between atoms: _241  and  _242
REMARK  103  A    between atoms: _244  and  _246
REMARK  104  A    between atoms: _246  and  _247
REMARK  105  A    between atoms: _246  and  _249
REMARK  106  A    between atoms: _252  and  _254
REMARK  107  A    between atoms: _254  and  _255
REMARK  108  A    between atoms: _254  and  _257
REMARK  109  A    between atoms: _257  and  _258
REMARK  110  A    between atoms: _264  and  _266
REMARK  111  A    between atoms: _266  and  _267
REMARK  112  A    between atoms: _270  and  _272
REMARK  113  A    between atoms: _272  and  _273
REMARK  114  A    between atoms: _272  and  _275
REMARK  115  A    between atoms: _275  and  _276
REMARK  116  A    between atoms: _276  and  _277
REMARK  117  A    between atoms: _279  and  _281
REMARK  118  A    between atoms: _281  and  _282
REMARK  119  A    between atoms: _284  and  _286
REMARK  120  A    between atoms: _286  and  _287
REMARK  121  A    between atoms: _286  and  _289
REMARK  122  A    between atoms: _289  and  _290
REMARK  123  A    between atoms: _290  and  _291
REMARK  124  A    between atoms: _291  and  _292
REMARK  125  A    between atoms: _301  and  _303
REMARK  126  A    between atoms: _303  and  _304
REMARK  127  A    between atoms: _303  and  _306
REMARK  128  A    between atoms: _306  and  _307
REMARK  129  A    between atoms: _309  and  _311
REMARK  130  A    between atoms: _311  and  _312
REMARK  131  A    between atoms: _311  and  _314
REMARK  132  A    between atoms: _314  and  _315
REMARK  133  A    between atoms: _318  and  _320
REMARK  134  A    between atoms: _320  and  _321
REMARK  135  A    between atoms: _320  and  _323
REMARK  136  A    between atoms: _323  and  _324
REMARK  137  A    between atoms: _329  and  _330
REMARK  138  A    between atoms: _332  and  _334
REMARK  139  A    between atoms: _334  and  _335
REMARK  140  A    between atoms: _334  and  _337
REMARK  141  A    between atoms: _337  and  _338
REMARK  142  A    between atoms: _344  and  _346
REMARK  143  A    between atoms: _346  and  _347
REMARK  144  A    between atoms: _350  and  _352
REMARK  145  A    between atoms: _352  and  _353
REMARK  146  A    between atoms: _352  and  _355
REMARK  147  A    between atoms: _355  and  _356
REMARK  148  A    between atoms: _359  and  _361
REMARK  149  A    between atoms: _361  and  _362
REMARK  150  A    between atoms: _361  and  _364
REMARK  151  A    between atoms: _364  and  _365
REMARK  152  A    between atoms: _371  and  _373
REMARK  153  A    between atoms: _373  and  _374
REMARK  154  A    between atoms: _373  and  _376
REMARK  155  A    between atoms: _376  and  _377
REMARK  156  A    between atoms: _379  and  _381
REMARK  157  A    between atoms: _381  and  _382
REMARK  158  A    between atoms: _381  and  _384
REMARK  159  A    between atoms: _384  and  _385
REMARK  160  A    between atoms: _385  and  _386
REMARK  161  A    between atoms: _388  and  _390
REMARK  162  A    between atoms: _390  and  _391
REMARK  163  A    between atoms: _390  and  _393
REMARK  164  A    between atoms: _393  and  _394
REMARK  165  A    between atoms: _394  and  _395
REMARK  166  A    between atoms: _400  and  _402
REMARK  167  A    between atoms: _402  and  _403
REMARK  168  A    between atoms: _402  and  _405
REMARK  169  A    between atoms: _407  and  _409
REMARK  170  A    between atoms: _409  and  _410
REMARK  171  A    between atoms: _409  and  _412
REMARK  172  A    between atoms: _412  and  _413
REMARK  173  A    between atoms: _413  and  _414
REMARK  174  A    between atoms: _416  and  _418
REMARK  175  A    between atoms: _418  and  _419
REMARK  176  A    between atoms: _418  and  _421
REMARK  177  A    between atoms: _421  and  _422
REMARK  178  A    between atoms: _425  and  _427
REMARK  179  A    between atoms: _427  and  _428
REMARK  180  A    between atoms: _427  and  _430
REMARK  181  A    between atoms: _430  and  _431
REMARK  182  A    between atoms: _434  and  _436
REMARK  183  A    between atoms: _436  and  _437
REMARK  184  A    between atoms: _436  and  _439
REMARK  185  A    between atoms: _439  and  _440
REMARK  186  A    between atoms: _443  and  _445
REMARK  187  A    between atoms: _445  and  _446
REMARK  188  A    between atoms: _449  and  _451
REMARK  189  A    between atoms: _451  and  _452
REMARK  190  A    between atoms: _451  and  _454
REMARK  191  A    between atoms: _454  and  _455
REMARK  192  A    between atoms: _458  and  _460
REMARK  193  A    between atoms: _460  and  _461
REMARK  194  A    between atoms: _460  and  _463
REMARK  195  A    between atoms: _463  and  _464
REMARK  196  A    between atoms: _469  and  _471
REMARK  197  A    between atoms: _471  and  _472
REMARK  198  A    between atoms: _471  and  _474
REMARK  199  A    between atoms: _474  and  _475
REMARK  200  A    between atoms: _475  and  _476
REMARK  201  A    between atoms: _481  and  _483
REMARK  202  A    between atoms: _483  and  _484
REMARK  203  A    between atoms: _483  and  _486
REMARK  204  A    between atoms: _486  and  _487
REMARK  205  A    between atoms: _493  and  _495
REMARK  206  A    between atoms: _495  and  _496
REMARK  207  A    between atoms: _495  and  _498
REMARK  208  A    between atoms: _498  and  _499
REMARK  209  A    between atoms: _502  and  _504
REMARK  210  A    between atoms: _504  and  _505
REMARK  211  A    between atoms: _504  and  _507
REMARK  212  A    between atoms: _507  and  _508
REMARK  213  A    between atoms: _514  and  _516
REMARK  214  A    between atoms: _516  and  _517
REMARK  215  A    between atoms: _516  and  _519
REMARK  216  A    between atoms: _519  and  _520
REMARK  217  A    between atoms: _523  and  _525
REMARK  218  A    between atoms: _525  and  _526
REMARK  219  A    between atoms: _525  and  _528
REMARK  220  A    between atoms: _528  and  _529
REMARK  221  A    between atoms: _532  and  _534
REMARK  222  A    between atoms: _534  and  _535
REMARK  223  A    between atoms: _534  and  _537
REMARK  224  A    between atoms: _540  and  _542
REMARK  225  A    between atoms: _542  and  _543
REMARK  226  A    between atoms: _542  and  _545
REMARK  227  A    between atoms: _545  and  _546
REMARK  228  A    between atoms: _549  and  _551
REMARK  229  A    between atoms: _551  and  _552
REMARK  230  A    between atoms: _551  and  _554
REMARK  231  A    between atoms: _554  and  _555
REMARK  232  A    between atoms: _562  and  _563
REMARK  233  A    between atoms: _568  and  _570
REMARK  234  A    between atoms: _570  and  _571
REMARK  235  A    between atoms: _570  and  _573
REMARK  236  A    between atoms: _573  and  _574
REMARK  237  A    between atoms: _574  and  _575
REMARK  238  A    between atoms: _577  and  _579
REMARK  239  A    between atoms: _579  and  _580
REMARK  240  A    between atoms: _579  and  _582
REMARK  241  A    between atoms: _582  and  _583
REMARK  242  A    between atoms: _583  and  _584
REMARK  243  A    between atoms: _586  and  _588
REMARK  244  A    between atoms: _588  and  _589
REMARK  245  A    between atoms: _592  and  _594
REMARK  246  A    between atoms: _594  and  _595
REMARK  247  A    between atoms: _594  and  _597
REMARK  248  A    between atoms: _597  and  _598
REMARK  249  A    between atoms: _601  and  _603
REMARK  250  A    between atoms: _603  and  _604
REMARK  251  A    between atoms: _603  and  _606
REMARK  252  A    between atoms: _606  and  _607
REMARK  253  A    between atoms: _610  and  _612
REMARK  254  A    between atoms: _612  and  _613
REMARK  255  A    between atoms: _612  and  _615
REMARK  256  A    between atoms: _615  and  _616
REMARK  257  A    between atoms: _618  and  _620
REMARK  258  A    between atoms: _620  and  _621
REMARK  259  A    between atoms: _620  and  _623
REMARK  260  A    between atoms: _626  and  _628
REMARK  261  A    between atoms: _628  and  _629
REMARK  262  A    between atoms: _628  and  _631
REMARK  263  A    between atoms: _631  and  _632
REMARK  264  A    between atoms: _632  and  _633
REMARK  265  A    between atoms: _638  and  _640
REMARK  266  A    between atoms: _640  and  _641
REMARK  267  A    between atoms: _640  and  _643
REMARK  268  A    between atoms: _647  and  _648
REMARK  269  A    between atoms: _653  and  _655
REMARK  270  A    between atoms: _655  and  _656
REMARK  271  A    between atoms: _655  and  _658
REMARK  272  A    between atoms: _658  and  _659
REMARK                            x       y       z     vdW  Elec       q    Type
REMARK                         _______ _______ _______ _____ _____    ______ ____
ROOT
ATOM      1  CA  LEU A   1      27.035   8.928  -5.196  0.00  0.00    +0.133 C 
ENDROOT
BRANCH   1   2
ATOM      2  N   LEU A   1      27.162  10.367  -5.374  0.00  0.00    -0.239 NA
ATOM      3  H   LEU A   1      26.420  10.995  -5.003  0.00  0.00    +0.142 HD
ENDBRANCH   1   2
BRANCH   1   4
ATOM      4  C   LEU A   1      25.557   8.552  -5.144  0.00  0.00    +0.224 C 
ATOM      5  O   LEU A   1      25.010   8.244  -4.083  0.00  0.00    -0.287 OA
ENDBRANCH   1   4
BRANCH   1   6
ATOM      6  CB  LEU A   1      27.748   8.469  -3.918  0.00  0.00    +0.025 C 
BRANCH   6   7
ATOM      7  CG  LEU A   1      27.784   6.941  -3.771  0.00  0.00    +0.002 C 
ATOM      8  CD2 LEU A   1      28.488   6.550  -2.482  0.00  0.00    +0.000 C 
ATOM      9  CD1 LEU A   1      28.497   6.329  -4.980  0.00  0.00    +0.000 C 
ENDBRANCH   6   7
ENDBRANCH   1   6
TORSDOF 4
REMARK  Name = ../refined-set-2016/3b65/3b65_pocket.pdb
REMARK  272 active torsions:
REMARK  status: ('A' for Active; 'I' for Inactive)
REMARK    1  A    between atoms: _1  and  _3
REMARK    2  A    between atoms: _3  and  _4
REMARK    3  A    between atoms: _3  and  _6
REMARK    4  A    between atoms: _9  and  _11
REMARK    5  A    between atoms: _11  and  _12
REMARK    6  A    between atoms: _15  and  _17
REMARK    7  A    between atoms: _17  and  _18
REMARK    8  A    between atoms: _17  and  _20
REMARK    9  A    between atoms: _20  and  _21
REMARK   10  A    between atoms: _27  and  _29
REMARK   11  A    between atoms: _29  and  _30
REMARK   12  A    between atoms: _29  and  _32
REMARK   13  A    between atoms: _32  and  _33
REMARK   14  A    between atoms: _36  and  _38
REMARK   15  A    between atoms: _38  and  _39
REMARK   16  A    between atoms: _38  and  _41
REMARK   17  A    between atoms: _41  and  _42
REMARK   18  A    between atoms: _45  and  _47
REMARK   19  A    between atoms: _47  and  _48
REMARK   20  A    between atoms: _47  and  _50
REMARK   21  A    between atoms: _50  and  _51
REMARK   22  A    between atoms: _53  and  _55
REMARK   23  A    between atoms: _55  and  _56
REMARK   24  A    between atoms: _55  and  _58
REMARK   25  A    between atoms: _58  and  _59
REMARK   26  A    between atoms: _61  and  _63
REMARK   27  A    between atoms: _63  and  _64
REMARK   28  A    between atoms: _63  and  _66
REMARK   29  A    between atoms: _66  and  _67
REMARK   30  A    between atoms: _70  and  _72
REMARK   31  A    between atoms: _72  and  _73
REMARK   32  A    between atoms: _72  and  _75
REMARK   33  A    between atoms: _75  and  _76
REMARK   34  A    between atoms: _81  and  _83
REMARK   35  A    between atoms: _83  and  _84
REMARK   36  A    between atoms: _83  and  _86
REMARK   37  A    between atoms: _86  and  _87
REMARK   38  A    between atoms: _87  and  _88
REMARK   39  A    between atoms: _91  and  _93
REMARK   40  A    between atoms: _93  and  _94
REMARK   41  A    between atoms: _93  and  _96
REMARK   42  A    between atoms: _96  and  _97
REMARK   43  A    between atoms: _100  and  _102
REMARK   44  A    between atoms: _102  and  _103
REMARK   45  A    between atoms: _105  and  _107
REMARK   46  A    between atoms: _107  and  _108
REMARK   47  A    between atoms: _107  and  _110
REMARK   48  A    between atoms: _110  and  _111
REMARK   49  A    between atoms: _111  and  _112
REMARK   50  A    between atoms: _115  and  _117
REMARK   51  A    between atoms: _117  and  _118
REMARK   52  A    between atoms: _117  and  _120
REMARK   53  A    between atoms: _120  and  _121
REMARK   54  A    between atoms: _121  and  _122
REMARK   55  A    between atoms: _122  and  _123
REMARK   56  A    between atoms: _132  and  _134
REMARK   57  A    between atoms: _134  and  _135
REMARK   58  A    between atoms: _134  and  _137
REMARK   59  A    between atoms: _137  and  _138
REMARK   60  A    between atoms: _138  and  _139
REMARK   61  A    between atoms: _144  and  _146
REMARK   62  A    between atoms: _146  and  _147
REMARK   63  A    between atoms: _146  and  _149
REMARK   64  A    between atoms: _149  and  _150
REMARK   65  A    between atoms: _153  and  _155
REMARK   66  A    between atoms: _155  and  _156
REMARK   67  A    between atoms: _155  and  _158
REMARK   68  A    between atoms: _158  and  _159
REMARK   69  A    between atoms: _162  and  _164
REMARK   70  A    between atoms: _164  and  _165
REMARK   71  A    between atoms: _164  and  _167
REMARK   72  A    between atoms: _167  and  _168
REMARK   73  A    between atoms: _168  and  _169
REMARK   74  A    between atoms: _174  and  _176
REMARK   75  A    between atoms: _176  and  _177
REMARK   76  A    between atoms: _176  and  _179
REMARK   77  A    between atoms: _179  and  _180
REMARK   78  A    between atoms: _185  and  _186
REMARK   79  A    between atoms: _188  and  _190
REMARK   80  A    between atoms: _190  and  _191
REMARK   81  A    between atoms: _190  and  _193
REMARK   82  A    between atoms: _193  and  _194
REMARK   83  A    between atoms: _196  and  _198
REMARK   84  A    between atoms: _198  and  _199
REMARK   85  A    between atoms: _198  and  _201
REMARK   86  A    between atoms: _201  and  _202
REMARK   87  A    between atoms: _212  and  _214
REMARK   88  A    between atoms: _214  and  _215
REMARK   89  A    between atoms: _214  and  _217
REMARK   90  A    between atoms: _217  and  _218
REMARK   91  A    between atoms: _218  and  _219
REMARK   92  A    between atoms: _221  and  _223
REMARK   93  A    between atoms: _223  and  _224
REMARK   94  A    between atoms: _226  and  _228
REMARK   95  A    between atoms: _228  and  _229
REMARK   96  A    between atoms: _228  and  _231
REMARK   97  A    between atoms: _231  and  _232
REMARK   98  A    between atoms: _235  and  _237
REMARK   99  A    between atoms: _237  and  _238
REMARK  100  A    between atoms: _237  and  _240
REMARK  101  A    between atoms: _240  and  _241
REMARK  102  A    between atoms: _241  and  _242
REMARK  103  A    between atoms: _244  and  _246
REMARK  104  A    between atoms: _246  and  _247
REMARK  105  A    between atoms: _246  and  _249
REMARK  106  A    between atoms: _252  and  _254
REMARK  107  A    between atoms: _254  and  _255
REMARK  108  A    between atoms: _254  and  _257
REMARK  109  A    between atoms: _257  and  _258
REMARK  110  A    between atoms: _264  and  _266
REMARK  111  A    between atoms: _266  and  _267
REMARK  112  A    between atoms: _270  and  _272
REMARK  113  A    between atoms: _272  and  _273
REMARK  114  A    between atoms: _272  and  _275
REMARK  115  A    between atoms: _275  and  _276
REMARK  116  A    between atoms: _276  and  _277
REMARK  117  A    between atoms: _279  and  _281
REMARK  118  A    between atoms: _281  and  _282
REMARK  119  A    between atoms: _284  and  _286
REMARK  120  A    between atoms: _286  and  _287
REMARK  121  A    between atoms: _286  and  _289
REMARK  122  A    between atoms: _289  and  _290
REMARK  123  A    between atoms: _290  and  _291
REMARK  124  A    between atoms: _291  and  _292
REMARK  125  A    between atoms: _301  and  _303
REMARK  126  A    between atoms: _303  and  _304
REMARK  127  A    between atoms: _303  and  _306
REMARK  128  A    between atoms: _306  and  _307
REMARK  129  A    between atoms: _309  and  _311
REMARK  130  A    between atoms: _311  and  _312
REMARK  131  A    between atoms: _311  and  _314
REMARK  132  A    between atoms: _314  and  _315
REMARK  133  A    between atoms: _318  and  _320
REMARK  134  A    between atoms: _320  and  _321
REMARK  135  A    between atoms: _320  and  _323
REMARK  136  A    between atoms: _323  and  _324
REMARK  137  A    between atoms: _329  and  _330
REMARK  138  A    between atoms: _332  and  _334
REMARK  139  A    between atoms: _334  and  _335
REMARK  140  A    between atoms: _334  and  _337
REMARK  141  A    between atoms: _337  and  _338
REMARK  142  A    between atoms: _344  and  _346
REMARK  143  A    between atoms: _346  and  _347
REMARK  144  A    between atoms: _350  and  _352
REMARK  145  A    between atoms: _352  and  _353
REMARK  146  A    between atoms: _352  and  _355
REMARK  147  A    between atoms: _355  and  _356
REMARK  148  A    between atoms: _359  and  _361
REMARK  149  A    between atoms: _361  and  _362
REMARK  150  A    between atoms: _361  and  _364
REMARK  151  A    between atoms: _364  and  _365
REMARK  152  A    between atoms: _371  and  _373
REMARK  153  A    between atoms: _373  and  _374
REMARK  154  A    between atoms: _373  and  _376
REMARK  155  A    between atoms: _376  and  _377
REMARK  156  A    between atoms: _379  and  _381
REMARK  157  A    between atoms: _381  and  _382
REMARK  158  A    between atoms: _381  and  _384
REMARK  159  A    between atoms: _384  and  _385
REMARK  160  A    between atoms: _385  and  _386
REMARK  161  A    between atoms: _388  and  _390
REMARK  162  A    between atoms: _390  and  _391
REMARK  163  A    between atoms: _390  and  _393
REMARK  164  A    between atoms: _393  and  _394
REMARK  165  A    between atoms: _394  and  _395
REMARK  166  A    between atoms: _400  and  _402
REMARK  167  A    between atoms: _402  and  _403
REMARK  168  A    between atoms: _402  and  _405
REMARK  169  A    between atoms: _407  and  _409
REMARK  170  A    between atoms: _409  and  _410
REMARK  171  A    between atoms: _409  and  _412
REMARK  172  A    between atoms: _412  and  _413
REMARK  173  A    between atoms: _413  and  _414
REMARK  174  A    between atoms: _416  and  _418
REMARK  175  A    between atoms: _418  and  _419
REMARK  176  A    between atoms: _418  and  _421
REMARK  177  A    between atoms: _421  and  _422
REMARK  178  A    between atoms: _425  and  _427
REMARK  179  A    between atoms: _427  and  _428
REMARK  180  A    between atoms: _427  and  _430
REMARK  181  A    between atoms: _430  and  _431
REMARK  182  A    between atoms: _434  and  _436
REMARK  183  A    between atoms: _436  and  _437
REMARK  184  A    between atoms: _436  and  _439
REMARK  185  A    between atoms: _439  and  _440
REMARK  186  A    between atoms: _443  and  _445
REMARK  187  A    between atoms: _445  and  _446
REMARK  188  A    between atoms: _449  and  _451
REMARK  189  A    between atoms: _451  and  _452
REMARK  190  A    between atoms: _451  and  _454
REMARK  191  A    between atoms: _454  and  _455
REMARK  192  A    between atoms: _458  and  _460
REMARK  193  A    between atoms: _460  and  _461
REMARK  194  A    between atoms: _460  and  _463
REMARK  195  A    between atoms: _463  and  _464
REMARK  196  A    between atoms: _469  and  _471
REMARK  197  A    between atoms: _471  and  _472
REMARK  198  A    between atoms: _471  and  _474
REMARK  199  A    between atoms: _474  and  _475
REMARK  200  A    between atoms: _475  and  _476
REMARK  201  A    between atoms: _481  and  _483
REMARK  202  A    between atoms: _483  and  _484
REMARK  203  A    between atoms: _483  and  _486
REMARK  204  A    between atoms: _486  and  _487
REMARK  205  A    between atoms: _493  and  _495
REMARK  206  A    between atoms: _495  and  _496
REMARK  207  A    between atoms: _495  and  _498
REMARK  208  A    between atoms: _498  and  _499
REMARK  209  A    between atoms: _502  and  _504
REMARK  210  A    between atoms: _504  and  _505
REMARK  211  A    between atoms: _504  and  _507
REMARK  212  A    between atoms: _507  and  _508
REMARK  213  A    between atoms: _514  and  _516
REMARK  214  A    between atoms: _516  and  _517
REMARK  215  A    between atoms: _516  and  _519
REMARK  216  A    between atoms: _519  and  _520
REMARK  217  A    between atoms: _523  and  _525
REMARK  218  A    between atoms: _525  and  _526
REMARK  219  A    between atoms: _525  and  _528
REMARK  220  A    between atoms: _528  and  _529
REMARK  221  A    between atoms: _532  and  _534
REMARK  222  A    between atoms: _534  and  _535
REMARK  223  A    between atoms: _534  and  _537
REMARK  224  A    between atoms: _540  and  _542
REMARK  225  A    between atoms: _542  and  _543
REMARK  226  A    between atoms: _542  and  _545
REMARK  227  A    between atoms: _545  and  _546
REMARK  228  A    between atoms: _549  and  _551
REMARK  229  A    between atoms: _551  and  _552
REMARK  230  A    between atoms: _551  and  _554
REMARK  231  A    between atoms: _554  and  _555
REMARK  232  A    between atoms: _562  and  _563
REMARK  233  A    between atoms: _568  and  _570
REMARK  234  A    between atoms: _570  and  _571
REMARK  235  A    between atoms: _570  and  _573
REMARK  236  A    between atoms: _573  and  _574
REMARK  237  A    between atoms: _574  and  _575
REMARK  238  A    between atoms: _577  and  _579
REMARK  239  A    between atoms: _579  and  _580
REMARK  240  A    between atoms: _579  and  _582
REMARK  241  A    between atoms: _582  and  _583
REMARK  242  A    between atoms: _583  and  _584
REMARK  243  A    between atoms: _586  and  _588
REMARK  244  A    between atoms: _588  and  _589
REMARK  245  A    between atoms: _592  and  _594
REMARK  246  A    between atoms: _594  and  _595
REMARK  247  A    between atoms: _594  and  _597
REMARK  248  A    between atoms: _597  and  _598
REMARK  249  A    between atoms: _601  and  _603
REMARK  250  A    between atoms: _603  and  _604
REMARK  251  A    between atoms: _603  and  _606
REMARK  252  A    between atoms: _606  and  _607
REMARK  253  A    between atoms: _610  and  _612
REMARK  254  A    between atoms: _612  and  _613
REMARK  255  A    between atoms: _612  and  _615
REMARK  256  A    between atoms: _615  and  _616
REMARK  257  A    between atoms: _618  and  _620
REMARK  258  A    between atoms: _620  and  _621
REMARK  259  A    between atoms: _620  and  _623
REMARK  260  A    between atoms: _626  and  _628
REMARK  261  A    between atoms: _628  and  _629
REMARK  262  A    between atoms: _628  and  _631
REMARK  263  A    between atoms: _631  and  _632
REMARK  264  A    between atoms: _632  and  _633
REMARK  265  A    between atoms: _638  and  _640
REMARK  266  A    between atoms: _640  and  _641
REMARK  267  A    between atoms: _640  and  _643
REMARK  268  A    between atoms: _647  and  _648
REMARK  269  A    between atoms: _653  and  _655
REMARK  270  A    between atoms: _655  and  _656
REMARK  271  A    between atoms: _655  and  _658
REMARK  272  A    between atoms: _658  and  _659
REMARK                            x       y       z     vdW  Elec       q    Type
REMARK                         _______ _______ _______ _____ _____    ______ ____
ROOT
ATOM      1  CB  PHE A   1      22.483   3.630  -5.842  0.00  0.00    +0.051 C 
ENDROOT
BRANCH   1   2
ATOM      2  CG  PHE A   1      23.857   3.249  -5.361  0.00  0.00    -0.020 A 
ATOM      3  CD2 PHE A   1      24.087   1.977  -4.847  0.00  0.00    -0.004 A 
ATOM      4  CE2 PHE A   1      25.345   1.620  -4.347  0.00  0.00    -0.000 A 
ATOM      5  CZ  PHE A   1      26.386   2.545  -4.362  0.00  0.00    -0.000 A 
ATOM      6  CE1 PHE A   1      26.167   3.816  -4.875  0.00  0.00    -0.000 A 
ATOM      7  CD1 PHE A   1      24.905   4.163  -5.372  0.00  0.00    -0.004 A 
ENDBRANCH   1   2
BRANCH   1   8
ATOM      8  CA  PHE A   1      22.462   4.665  -6.978  0.00  0.00    +0.137 C 
BRANCH   8   9
ATOM      9  N   PHE A   1      22.657   6.007  -6.449  0.00  0.00    -0.239 NA
ATOM     10  H   PHE A   1      22.244   6.256  -5.528  0.00  0.00    +0.142 HD
ENDBRANCH   8   9
BRANCH   8  11
ATOM     11  C   PHE A   1      21.168   4.446  -7.753  0.00  0.00    +0.224 C 
ATOM     12  O   PHE A   1      20.075   4.753  -7.267  0.00  0.00    -0.287 OA
ENDBRANCH   8  11
ENDBRANCH   1   8
TORSDOF 4
REMARK  Name = ../refined-set-2016/3b65/3b65_pocket.pdb
REMARK  272 active torsions:
REMARK  status: ('A' for Active; 'I' for Inactive)
REMARK    1  A    between atoms: _1  and  _3
REMARK    2  A    between atoms: _3  and  _4
REMARK    3  A    between atoms: _3  and  _6
REMARK    4  A    between atoms: _9  and  _11
REMARK    5  A    between atoms: _11  and  _12
REMARK    6  A    between atoms: _15  and  _17
REMARK    7  A    between atoms: _17  and  _18
REMARK    8  A    between atoms: _17  and  _20
REMARK    9  A    between atoms: _20  and  _21
REMARK   10  A    between atoms: _27  and  _29
REMARK   11  A    between atoms: _29  and  _30
REMARK   12  A    between atoms: _29  and  _32
REMARK   13  A    between atoms: _32  and  _33
REMARK   14  A    between atoms: _36  and  _38
REMARK   15  A    between atoms: _38  and  _39
REMARK   16  A    between atoms: _38  and  _41
REMARK   17  A    between atoms: _41  and  _42
REMARK   18  A    between atoms: _45  and  _47
REMARK   19  A    between atoms: _47  and  _48
REMARK   20  A    between atoms: _47  and  _50
REMARK   21  A    between atoms: _50  and  _51
REMARK   22  A    between atoms: _53  and  _55
REMARK   23  A    between atoms: _55  and  _56
REMARK   24  A    between atoms: _55  and  _58
REMARK   25  A    between atoms: _58  and  _59
REMARK   26  A    between atoms: _61  and  _63
REMARK   27  A    between atoms: _63  and  _64
REMARK   28  A    between atoms: _63  and  _66
REMARK   29  A    between atoms: _66  and  _67
REMARK   30  A    between atoms: _70  and  _72
REMARK   31  A    between atoms: _72  and  _73
REMARK   32  A    between atoms: _72  and  _75
REMARK   33  A    between atoms: _75  and  _76
REMARK   34  A    between atoms: _81  and  _83
REMARK   35  A    between atoms: _83  and  _84
REMARK   36  A    between atoms: _83  and  _86
REMARK   37  A    between atoms: _86  and  _87
REMARK   38  A    between atoms: _87  and  _88
REMARK   39  A    between atoms: _91  and  _93
REMARK   40  A    between atoms: _93  and  _94
REMARK   41  A    between atoms: _93  and  _96
REMARK   42  A    between atoms: _96  and  _97
REMARK   43  A    between atoms: _100  and  _102
REMARK   44  A    between atoms: _102  and  _103
REMARK   45  A    between atoms: _105  and  _107
REMARK   46  A    between atoms: _107  and  _108
REMARK   47  A    between atoms: _107  and  _110
REMARK   48  A    between atoms: _110  and  _111
REMARK   49  A    between atoms: _111  and  _112
REMARK   50  A    between atoms: _115  and  _117
REMARK   51  A    between atoms: _117  and  _118
REMARK   52  A    between atoms: _117  and  _120
REMARK   53  A    between atoms: _120  and  _121
REMARK   54  A    between atoms: _121  and  _122
REMARK   55  A    between atoms: _122  and  _123
REMARK   56  A    between atoms: _132  and  _134
REMARK   57  A    between atoms: _134  and  _135
REMARK   58  A    between atoms: _134  and  _137
REMARK   59  A    between atoms: _137  and  _138
REMARK   60  A    between atoms: _138  and  _139
REMARK   61  A    between atoms: _144  and  _146
REMARK   62  A    between atoms: _146  and  _147
REMARK   63  A    between atoms: _146  and  _149
REMARK   64  A    between atoms: _149  and  _150
REMARK   65  A    between atoms: _153  and  _155
REMARK   66  A    between atoms: _155  and  _156
REMARK   67  A    between atoms: _155  and  _158
REMARK   68  A    between atoms: _158  and  _159
REMARK   69  A    between atoms: _162  and  _164
REMARK   70  A    between atoms: _164  and  _165
REMARK   71  A    between atoms: _164  and  _167
REMARK   72  A    between atoms: _167  and  _168
REMARK   73  A    between atoms: _168  and  _169
REMARK   74  A    between atoms: _174  and  _176
REMARK   75  A    between atoms: _176  and  _177
REMARK   76  A    between atoms: _176  and  _179
REMARK   77  A    between atoms: _179  and  _180
REMARK   78  A    between atoms: _185  and  _186
REMARK   79  A    between atoms: _188  and  _190
REMARK   80  A    between atoms: _190  and  _191
REMARK   81  A    between atoms: _190  and  _193
REMARK   82  A    between atoms: _193  and  _194
REMARK   83  A    between atoms: _196  and  _198
REMARK   84  A    between atoms: _198  and  _199
REMARK   85  A    between atoms: _198  and  _201
REMARK   86  A    between atoms: _201  and  _202
REMARK   87  A    between atoms: _212  and  _214
REMARK   88  A    between atoms: _214  and  _215
REMARK   89  A    between atoms: _214  and  _217
REMARK   90  A    between atoms: _217  and  _218
REMARK   91  A    between atoms: _218  and  _219
REMARK   92  A    between atoms: _221  and  _223
REMARK   93  A    between atoms: _223  and  _224
REMARK   94  A    between atoms: _226  and  _228
REMARK   95  A    between atoms: _228  and  _229
REMARK   96  A    between atoms: _228  and  _231
REMARK   97  A    between atoms: _231  and  _232
REMARK   98  A    between atoms: _235  and  _237
REMARK   99  A    between atoms: _237  and  _238
REMARK  100  A    between atoms: _237  and  _240
REMARK  101  A    between atoms: _240  and  _241
REMARK  102  A    between atoms: _241  and  _242
REMARK  103  A    between atoms: _244  and  _246
REMARK  104  A    between atoms: _246  and  _247
REMARK  105  A    between atoms: _246  and  _249
REMARK  106  A    between atoms: _252  and  _254
REMARK  107  A    between atoms: _254  and  _255
REMARK  108  A    between atoms: _254  and  _257
REMARK  109  A    between atoms: _257  and  _258
REMARK  110  A    between atoms: _264  and  _266
REMARK  111  A    between atoms: _266  and  _267
REMARK  112  A    between atoms: _270  and  _272
REMARK  113  A    between atoms: _272  and  _273
REMARK  114  A    between atoms: _272  and  _275
REMARK  115  A    between atoms: _275  and  _276
REMARK  116  A    between atoms: _276  and  _277
REMARK  117  A    between atoms: _279  and  _281
REMARK  118  A    between atoms: _281  and  _282
REMARK  119  A    between atoms: _284  and  _286
REMARK  120  A    between atoms: _286  and  _287
REMARK  121  A    between atoms: _286  and  _289
REMARK  122  A    between atoms: _289  and  _290
REMARK  123  A    between atoms: _290  and  _291
REMARK  124  A    between atoms: _291  and  _292
REMARK  125  A    between atoms: _301  and  _303
REMARK  126  A    between atoms: _303  and  _304
REMARK  127  A    between atoms: _303  and  _306
REMARK  128  A    between atoms: _306  and  _307
REMARK  129  A    between atoms: _309  and  _311
REMARK  130  A    between atoms: _311  and  _312
REMARK  131  A    between atoms: _311  and  _314
REMARK  132  A    between atoms: _314  and  _315
REMARK  133  A    between atoms: _318  and  _320
REMARK  134  A    between atoms: _320  and  _321
REMARK  135  A    between atoms: _320  and  _323
REMARK  136  A    between atoms: _323  and  _324
REMARK  137  A    between atoms: _329  and  _330
REMARK  138  A    between atoms: _332  and  _334
REMARK  139  A    between atoms: _334  and  _335
REMARK  140  A    between atoms: _334  and  _337
REMARK  141  A    between atoms: _337  and  _338
REMARK  142  A    between atoms: _344  and  _346
REMARK  143  A    between atoms: _346  and  _347
REMARK  144  A    between atoms: _350  and  _352
REMARK  145  A    between atoms: _352  and  _353
REMARK  146  A    between atoms: _352  and  _355
REMARK  147  A    between atoms: _355  and  _356
REMARK  148  A    between atoms: _359  and  _361
REMARK  149  A    between atoms: _361  and  _362
REMARK  150  A    between atoms: _361  and  _364
REMARK  151  A    between atoms: _364  and  _365
REMARK  152  A    between atoms: _371  and  _373
REMARK  153  A    between atoms: _373  and  _374
REMARK  154  A    between atoms: _373  and  _376
REMARK  155  A    between atoms: _376  and  _377
REMARK  156  A    between atoms: _379  and  _381
REMARK  157  A    between atoms: _381  and  _382
REMARK  158  A    between atoms: _381  and  _384
REMARK  159  A    between atoms: _384  and  _385
REMARK  160  A    between atoms: _385  and  _386
REMARK  161  A    between atoms: _388  and  _390
REMARK  162  A    between atoms: _390  and  _391
REMARK  163  A    between atoms: _390  and  _393
REMARK  164  A    between atoms: _393  and  _394
REMARK  165  A    between atoms: _394  and  _395
REMARK  166  A    between atoms: _400  and  _402
REMARK  167  A    between atoms: _402  and  _403
REMARK  168  A    between atoms: _402  and  _405
REMARK  169  A    between atoms: _407  and  _409
REMARK  170  A    between atoms: _409  and  _410
REMARK  171  A    between atoms: _409  and  _412
REMARK  172  A    between atoms: _412  and  _413
REMARK  173  A    between atoms: _413  and  _414
REMARK  174  A    between atoms: _416  and  _418
REMARK  175  A    between atoms: _418  and  _419
REMARK  176  A    between atoms: _418  and  _421
REMARK  177  A    between atoms: _421  and  _422
REMARK  178  A    between atoms: _425  and  _427
REMARK  179  A    between atoms: _427  and  _428
REMARK  180  A    between atoms: _427  and  _430
REMARK  181  A    between atoms: _430  and  _431
REMARK  182  A    between atoms: _434  and  _436
REMARK  183  A    between atoms: _436  and  _437
REMARK  184  A    between atoms: _436  and  _439
REMARK  185  A    between atoms: _439  and  _440
REMARK  186  A    between atoms: _443  and  _445
REMARK  187  A    between atoms: _445  and  _446
REMARK  188  A    between atoms: _449  and  _451
REMARK  189  A    between atoms: _451  and  _452
REMARK  190  A    between atoms: _451  and  _454
REMARK  191  A    between atoms: _454  and  _455
REMARK  192  A    between atoms: _458  and  _460
REMARK  193  A    between atoms: _460  and  _461
REMARK  194  A    between atoms: _460  and  _463
REMARK  195  A    between atoms: _463  and  _464
REMARK  196  A    between atoms: _469  and  _471
REMARK  197  A    between atoms: _471  and  _472
REMARK  198  A    between atoms: _471  and  _474
REMARK  199  A    between atoms: _474  and  _475
REMARK  200  A    between atoms: _475  and  _476
REMARK  201  A    between atoms: _481  and  _483
REMARK  202  A    between atoms: _483  and  _484
REMARK  203  A    between atoms: _483  and  _486
REMARK  204  A    between atoms: _486  and  _487
REMARK  205  A    between atoms: _493  and  _495
REMARK  206  A    between atoms: _495  and  _496
REMARK  207  A    between atoms: _495  and  _498
REMARK  208  A    between atoms: _498  and  _499
REMARK  209  A    between atoms: _502  and  _504
REMARK  210  A    between atoms: _504  and  _505
REMARK  211  A    between atoms: _504  and  _507
REMARK  212  A    between atoms: _507  and  _508
REMARK  213  A    between atoms: _514  and  _516
REMARK  214  A    between atoms: _516  and  _517
REMARK  215  A    between atoms: _516  and  _519
REMARK  216  A    between atoms: _519  and  _520
REMARK  217  A    between atoms: _523  and  _525
REMARK  218  A    between atoms: _525  and  _526
REMARK  219  A    between atoms: _525  and  _528
REMARK  220  A    between atoms: _528  and  _529
REMARK  221  A    between atoms: _532  and  _534
REMARK  222  A    between atoms: _534  and  _535
REMARK  223  A    between atoms: _534  and  _537
REMARK  224  A    between atoms: _540  and  _542
REMARK  225  A    between atoms: _542  and  _543
REMARK  226  A    between atoms: _542  and  _545
REMARK  227  A    between atoms: _545  and  _546
REMARK  228  A    between atoms: _549  and  _551
REMARK  229  A    between atoms: _551  and  _552
REMARK  230  A    between atoms: _551  and  _554
REMARK  231  A    between atoms: _554  and  _555
REMARK  232  A    between atoms: _562  and  _563
REMARK  233  A    between atoms: _568  and  _570
REMARK  234  A    between atoms: _570  and  _571
REMARK  235  A    between atoms: _570  and  _573
REMARK  236  A    between atoms: _573  and  _574
REMARK  237  A    between atoms: _574  and  _575
REMARK  238  A    between atoms: _577  and  _579
REMARK  239  A    between atoms: _579  and  _580
REMARK  240  A    between atoms: _579  and  _582
REMARK  241  A    between atoms: _582  and  _583
REMARK  242  A    between atoms: _583  and  _584
REMARK  243  A    between atoms: _586  and  _588
REMARK  244  A    between atoms: _588  and  _589
REMARK  245  A    between atoms: _592  and  _594
REMARK  246  A    between atoms: _594  and  _595
REMARK  247  A    between atoms: _594  and  _597
REMARK  248  A    between atoms: _597  and  _598
REMARK  249  A    between atoms: _601  and  _603
REMARK  250  A    between atoms: _603  and  _604
REMARK  251  A    between atoms: _603  and  _606
REMARK  252  A    between atoms: _606  and  _607
REMARK  253  A    between atoms: _610  and  _612
REMARK  254  A    between atoms: _612  and  _613
REMARK  255  A    between atoms: _612  and  _615
REMARK  256  A    between atoms: _615  and  _616
REMARK  257  A    between atoms: _618  and  _620
REMARK  258  A    between atoms: _620  and  _621
REMARK  259  A    between atoms: _620  and  _623
REMARK  260  A    between atoms: _626  and  _628
REMARK  261  A    between atoms: _628  and  _629
REMARK  262  A    between atoms: _628  and  _631
REMARK  263  A    between atoms: _631  and  _632
REMARK  264  A    between atoms: _632  and  _633
REMARK  265  A    between atoms: _638  and  _640
REMARK  266  A    between atoms: _640  and  _641
REMARK  267  A    between atoms: _640  and  _643
REMARK  268  A    between atoms: _647  and  _648
REMARK  269  A    between atoms: _653  and  _655
REMARK  270  A    between atoms: _655  and  _656
REMARK  271  A    between atoms: _655  and  _658
REMARK  272  A    between atoms: _658  and  _659
REMARK                            x       y       z     vdW  Elec       q    Type
REMARK                         _______ _______ _______ _____ _____    ______ ____
ROOT
ATOM      1  CA  SER A   1      27.289  -2.975  -5.201  0.00  0.00    +0.163 C 
ENDROOT
BRANCH   1   2
ATOM      2  N   SER A   1      26.734  -3.151  -6.545  0.00  0.00    -0.237 NA
ATOM      3  H   SER A   1      25.811  -2.731  -6.777  0.00  0.00    +0.142 HD
ENDBRANCH   1   2
BRANCH   1   4
ATOM      4  C   SER A   1      27.187  -4.272  -4.406  0.00  0.00    +0.227 C 
ATOM      5  O   SER A   1      27.860  -4.443  -3.382  0.00  0.00    -0.287 OA
ENDBRANCH   1   4
BRANCH   1   6
ATOM      6  CB  SER A   1      26.538  -1.875  -4.443  0.00  0.00    +0.162 C 
BRANCH   6   7
ATOM      7  OG  SER A   1      25.218  -2.290  -4.119  0.00  0.00    -0.380 OA
ATOM      8  H   SER A   1      24.724  -2.496  -4.952  0.00  0.00    +0.211 HD
ENDBRANCH   6   7
ENDBRANCH   1   6
TORSDOF 4
REMARK  Name = ../refined-set-2016/3b65/3b65_pocket.pdb
REMARK  272 active torsions:
REMARK  status: ('A' for Active; 'I' for Inactive)
REMARK    1  A    between atoms: _1  and  _3
REMARK    2  A    between atoms: _3  and  _4
REMARK    3  A    between atoms: _3  and  _6
REMARK    4  A    between atoms: _9  and  _11
REMARK    5  A    between atoms: _11  and  _12
REMARK    6  A    between atoms: _15  and  _17
REMARK    7  A    between atoms: _17  and  _18
REMARK    8  A    between atoms: _17  and  _20
REMARK    9  A    between atoms: _20  and  _21
REMARK   10  A    between atoms: _27  and  _29
REMARK   11  A    between atoms: _29  and  _30
REMARK   12  A    between atoms: _29  and  _32
REMARK   13  A    between atoms: _32  and  _33
REMARK   14  A    between atoms: _36  and  _38
REMARK   15  A    between atoms: _38  and  _39
REMARK   16  A    between atoms: _38  and  _41
REMARK   17  A    between atoms: _41  and  _42
REMARK   18  A    between atoms: _45  and  _47
REMARK   19  A    between atoms: _47  and  _48
REMARK   20  A    between atoms: _47  and  _50
REMARK   21  A    between atoms: _50  and  _51
REMARK   22  A    between atoms: _53  and  _55
REMARK   23  A    between atoms: _55  and  _56
REMARK   24  A    between atoms: _55  and  _58
REMARK   25  A    between atoms: _58  and  _59
REMARK   26  A    between atoms: _61  and  _63
REMARK   27  A    between atoms: _63  and  _64
REMARK   28  A    between atoms: _63  and  _66
REMARK   29  A    between atoms: _66  and  _67
REMARK   30  A    between atoms: _70  and  _72
REMARK   31  A    between atoms: _72  and  _73
REMARK   32  A    between atoms: _72  and  _75
REMARK   33  A    between atoms: _75  and  _76
REMARK   34  A    between atoms: _81  and  _83
REMARK   35  A    between atoms: _83  and  _84
REMARK   36  A    between atoms: _83  and  _86
REMARK   37  A    between atoms: _86  and  _87
REMARK   38  A    between atoms: _87  and  _88
REMARK   39  A    between atoms: _91  and  _93
REMARK   40  A    between atoms: _93  and  _94
REMARK   41  A    between atoms: _93  and  _96
REMARK   42  A    between atoms: _96  and  _97
REMARK   43  A    between atoms: _100  and  _102
REMARK   44  A    between atoms: _102  and  _103
REMARK   45  A    between atoms: _105  and  _107
REMARK   46  A    between atoms: _107  and  _108
REMARK   47  A    between atoms: _107  and  _110
REMARK   48  A    between atoms: _110  and  _111
REMARK   49  A    between atoms: _111  and  _112
REMARK   50  A    between atoms: _115  and  _117
REMARK   51  A    between atoms: _117  and  _118
REMARK   52  A    between atoms: _117  and  _120
REMARK   53  A    between atoms: _120  and  _121
REMARK   54  A    between atoms: _121  and  _122
REMARK   55  A    between atoms: _122  and  _123
REMARK   56  A    between atoms: _132  and  _134
REMARK   57  A    between atoms: _134  and  _135
REMARK   58  A    between atoms: _134  and  _137
REMARK   59  A    between atoms: _137  and  _138
REMARK   60  A    between atoms: _138  and  _139
REMARK   61  A    between atoms: _144  and  _146
REMARK   62  A    between atoms: _146  and  _147
REMARK   63  A    between atoms: _146  and  _149
REMARK   64  A    between atoms: _149  and  _150
REMARK   65  A    between atoms: _153  and  _155
REMARK   66  A    between atoms: _155  and  _156
REMARK   67  A    between atoms: _155  and  _158
REMARK   68  A    between atoms: _158  and  _159
REMARK   69  A    between atoms: _162  and  _164
REMARK   70  A    between atoms: _164  and  _165
REMARK   71  A    between atoms: _164  and  _167
REMARK   72  A    between atoms: _167  and  _168
REMARK   73  A    between atoms: _168  and  _169
REMARK   74  A    between atoms: _174  and  _176
REMARK   75  A    between atoms: _176  and  _177
REMARK   76  A    between atoms: _176  and  _179
REMARK   77  A    between atoms: _179  and  _180
REMARK   78  A    between atoms: _185  and  _186
REMARK   79  A    between atoms: _188  and  _190
REMARK   80  A    between atoms: _190  and  _191
REMARK   81  A    between atoms: _190  and  _193
REMARK   82  A    between atoms: _193  and  _194
REMARK   83  A    between atoms: _196  and  _198
REMARK   84  A    between atoms: _198  and  _199
REMARK   85  A    between atoms: _198  and  _201
REMARK   86  A    between atoms: _201  and  _202
REMARK   87  A    between atoms: _212  and  _214
REMARK   88  A    between atoms: _214  and  _215
REMARK   89  A    between atoms: _214  and  _217
REMARK   90  A    between atoms: _217  and  _218
REMARK   91  A    between atoms: _218  and  _219
REMARK   92  A    between atoms: _221  and  _223
REMARK   93  A    between atoms: _223  and  _224
REMARK   94  A    between atoms: _226  and  _228
REMARK   95  A    between atoms: _228  and  _229
REMARK   96  A    between atoms: _228  and  _231
REMARK   97  A    between atoms: _231  and  _232
REMARK   98  A    between atoms: _235  and  _237
REMARK   99  A    between atoms: _237  and  _238
REMARK  100  A    between atoms: _237  and  _240
REMARK  101  A    between atoms: _240  and  _241
REMARK  102  A    between atoms: _241  and  _242
REMARK  103  A    between atoms: _244  and  _246
REMARK  104  A    between atoms: _246  and  _247
REMARK  105  A    between atoms: _246  and  _249
REMARK  106  A    between atoms: _252  and  _254
REMARK  107  A    between atoms: _254  and  _255
REMARK  108  A    between atoms: _254  and  _257
REMARK  109  A    between atoms: _257  and  _258
REMARK  110  A    between atoms: _264  and  _266
REMARK  111  A    between atoms: _266  and  _267
REMARK  112  A    between atoms: _270  and  _272
REMARK  113  A    between atoms: _272  and  _273
REMARK  114  A    between atoms: _272  and  _275
REMARK  115  A    between atoms: _275  and  _276
REMARK  116  A    between atoms: _276  and  _277
REMARK  117  A    between atoms: _279  and  _281
REMARK  118  A    between atoms: _281  and  _282
REMARK  119  A    between atoms: _284  and  _286
REMARK  120  A    between atoms: _286  and  _287
REMARK  121  A    between atoms: _286  and  _289
REMARK  122  A    between atoms: _289  and  _290
REMARK  123  A    between atoms: _290  and  _291
REMARK  124  A    between atoms: _291  and  _292
REMARK  125  A    between atoms: _301  and  _303
REMARK  126  A    between atoms: _303  and  _304
REMARK  127  A    between atoms: _303  and  _306
REMARK  128  A    between atoms: _306  and  _307
REMARK  129  A    between atoms: _309  and  _311
REMARK  130  A    between atoms: _311  and  _312
REMARK  131  A    between atoms: _311  and  _314
REMARK  132  A    between atoms: _314  and  _315
REMARK  133  A    between atoms: _318  and  _320
REMARK  134  A    between atoms: _320  and  _321
REMARK  135  A    between atoms: _320  and  _323
REMARK  136  A    between atoms: _323  and  _324
REMARK  137  A    between atoms: _329  and  _330
REMARK  138  A    between atoms: _332  and  _334
REMARK  139  A    between atoms: _334  and  _335
REMARK  140  A    between atoms: _334  and  _337
REMARK  141  A    between atoms: _337  and  _338
REMARK  142  A    between atoms: _344  and  _346
REMARK  143  A    between atoms: _346  and  _347
REMARK  144  A    between atoms: _350  and  _352
REMARK  145  A    between atoms: _352  and  _353
REMARK  146  A    between atoms: _352  and  _355
REMARK  147  A    between atoms: _355  and  _356
REMARK  148  A    between atoms: _359  and  _361
REMARK  149  A    between atoms: _361  and  _362
REMARK  150  A    between atoms: _361  and  _364
REMARK  151  A    between atoms: _364  and  _365
REMARK  152  A    between atoms: _371  and  _373
REMARK  153  A    between atoms: _373  and  _374
REMARK  154  A    between atoms: _373  and  _376
REMARK  155  A    between atoms: _376  and  _377
REMARK  156  A    between atoms: _379  and  _381
REMARK  157  A    between atoms: _381  and  _382
REMARK  158  A    between atoms: _381  and  _384
REMARK  159  A    between atoms: _384  and  _385
REMARK  160  A    between atoms: _385  and  _386
REMARK  161  A    between atoms: _388  and  _390
REMARK  162  A    between atoms: _390  and  _391
REMARK  163  A    between atoms: _390  and  _393
REMARK  164  A    between atoms: _393  and  _394
REMARK  165  A    between atoms: _394  and  _395
REMARK  166  A    between atoms: _400  and  _402
REMARK  167  A    between atoms: _402  and  _403
REMARK  168  A    between atoms: _402  and  _405
REMARK  169  A    between atoms: _407  and  _409
REMARK  170  A    between atoms: _409  and  _410
REMARK  171  A    between atoms: _409  and  _412
REMARK  172  A    between atoms: _412  and  _413
REMARK  173  A    between atoms: _413  and  _414
REMARK  174  A    between atoms: _416  and  _418
REMARK  175  A    between atoms: _418  and  _419
REMARK  176  A    between atoms: _418  and  _421
REMARK  177  A    between atoms: _421  and  _422
REMARK  178  A    between atoms: _425  and  _427
REMARK  179  A    between atoms: _427  and  _428
REMARK  180  A    between atoms: _427  and  _430
REMARK  181  A    between atoms: _430  and  _431
REMARK  182  A    between atoms: _434  and  _436
REMARK  183  A    between atoms: _436  and  _437
REMARK  184  A    between atoms: _436  and  _439
REMARK  185  A    between atoms: _439  and  _440
REMARK  186  A    between atoms: _443  and  _445
REMARK  187  A    between atoms: _445  and  _446
REMARK  188  A    between atoms: _449  and  _451
REMARK  189  A    between atoms: _451  and  _452
REMARK  190  A    between atoms: _451  and  _454
REMARK  191  A    between atoms: _454  and  _455
REMARK  192  A    between atoms: _458  and  _460
REMARK  193  A    between atoms: _460  and  _461
REMARK  194  A    between atoms: _460  and  _463
REMARK  195  A    between atoms: _463  and  _464
REMARK  196  A    between atoms: _469  and  _471
REMARK  197  A    between atoms: _471  and  _472
REMARK  198  A    between atoms: _471  and  _474
REMARK  199  A    between atoms: _474  and  _475
REMARK  200  A    between atoms: _475  and  _476
REMARK  201  A    between atoms: _481  and  _483
REMARK  202  A    between atoms: _483  and  _484
REMARK  203  A    between atoms: _483  and  _486
REMARK  204  A    between atoms: _486  and  _487
REMARK  205  A    between atoms: _493  and  _495
REMARK  206  A    between atoms: _495  and  _496
REMARK  207  A    between atoms: _495  and  _498
REMARK  208  A    between atoms: _498  and  _499
REMARK  209  A    between atoms: _502  and  _504
REMARK  210  A    between atoms: _504  and  _505
REMARK  211  A    between atoms: _504  and  _507
REMARK  212  A    between atoms: _507  and  _508
REMARK  213  A    between atoms: _514  and  _516
REMARK  214  A    between atoms: _516  and  _517
REMARK  215  A    between atoms: _516  and  _519
REMARK  216  A    between atoms: _519  and  _520
REMARK  217  A    between atoms: _523  and  _525
REMARK  218  A    between atoms: _525  and  _526
REMARK  219  A    between atoms: _525  and  _528
REMARK  220  A    between atoms: _528  and  _529
REMARK  221  A    between atoms: _532  and  _534
REMARK  222  A    between atoms: _534  and  _535
REMARK  223  A    between atoms: _534  and  _537
REMARK  224  A    between atoms: _540  and  _542
REMARK  225  A    between atoms: _542  and  _543
REMARK  226  A    between atoms: _542  and  _545
REMARK  227  A    between atoms: _545  and  _546
REMARK  228  A    between atoms: _549  and  _551
REMARK  229  A    between atoms: _551  and  _552
REMARK  230  A    between atoms: _551  and  _554
REMARK  231  A    between atoms: _554  and  _555
REMARK  232  A    between atoms: _562  and  _563
REMARK  233  A    between atoms: _568  and  _570
REMARK  234  A    between atoms: _570  and  _571
REMARK  235  A    between atoms: _570  and  _573
REMARK  236  A    between atoms: _573  and  _574
REMARK  237  A    between atoms: _574  and  _575
REMARK  238  A    between atoms: _577  and  _579
REMARK  239  A    between atoms: _579  and  _580
REMARK  240  A    between atoms: _579  and  _582
REMARK  241  A    between atoms: _582  and  _583
REMARK  242  A    between atoms: _583  and  _584
REMARK  243  A    between atoms: _586  and  _588
REMARK  244  A    between atoms: _588  and  _589
REMARK  245  A    between atoms: _592  and  _594
REMARK  246  A    between atoms: _594  and  _595
REMARK  247  A    between atoms: _594  and  _597
REMARK  248  A    between atoms: _597  and  _598
REMARK  249  A    between atoms: _601  and  _603
REMARK  250  A    between atoms: _603  and  _604
REMARK  251  A    between atoms: _603  and  _606
REMARK  252  A    between atoms: _606  and  _607
REMARK  253  A    between atoms: _610  and  _612
REMARK  254  A    between atoms: _612  and  _613
REMARK  255  A    between atoms: _612  and  _615
REMARK  256  A    between atoms: _615  and  _616
REMARK  257  A    between atoms: _618  and  _620
REMARK  258  A    between atoms: _620  and  _621
REMARK  259  A    between atoms: _620  and  _623
REMARK  260  A    between atoms: _626  and  _628
REMARK  261  A    between atoms: _628  and  _629
REMARK  262  A    between atoms: _628  and  _631
REMARK  263  A    between atoms: _631  and  _632
REMARK  264  A    between atoms: _632  and  _633
REMARK  265  A    between atoms: _638  and  _640
REMARK  266  A    between atoms: _640  and  _641
REMARK  267  A    between atoms: _640  and  _643
REMARK  268  A    between atoms: _647  and  _648
REMARK  269  A    between atoms: _653  and  _655
REMARK  270  A    between atoms: _655  and  _656
REMARK  271  A    between atoms: _655  and  _658
REMARK  272  A    between atoms: _658  and  _659
REMARK                            x       y       z     vdW  Elec       q    Type
REMARK                         _______ _______ _______ _____ _____    ______ ____
ROOT
ATOM      1  CA  MET A   1      23.789  -4.832  -1.666  0.00  0.00    +0.134 C 
ENDROOT
BRANCH   1   2
ATOM      2  N   MET A   1      24.616  -5.154  -2.835  0.00  0.00    -0.239 NA
ATOM      3  H   MET A   1      24.663  -4.466  -3.614  0.00  0.00    +0.142 HD
ENDBRANCH   1   2
BRANCH   1   4
ATOM      4  C   MET A   1      22.403  -4.486  -2.176  0.00  0.00    +0.224 C 
ATOM      5  O   MET A   1      21.736  -3.612  -1.624  0.00  0.00    -0.287 OA
ENDBRANCH   1   4
BRANCH   1   6
ATOM      6  CB  MET A   1      24.327  -3.603  -0.938  0.00  0.00    +0.037 C 
BRANCH   6   7
ATOM      7  CG  MET A   1      25.662  -3.771  -0.275  0.00  0.00    +0.059 C 
BRANCH   7   8
ATOM      8  SD  MET A   1      26.440  -2.166  -0.100  0.00  0.00    -0.139 S 
ATOM      9  CE  MET A   1      25.426  -1.419   1.097  0.00  0.00    +0.069 C 
ENDBRANCH   7   8
ENDBRANCH   6   7
ENDBRANCH   1   6
TORSDOF 5
REMARK  Name = ../refined-set-2016/3b65/3b65_pocket.pdb
REMARK  272 active torsions:
REMARK  status: ('A' for Active; 'I' for Inactive)
REMARK    1  A    between atoms: _1  and  _3
REMARK    2  A    between atoms: _3  and  _4
REMARK    3  A    between atoms: _3  and  _6
REMARK    4  A    between atoms: _9  and  _11
REMARK    5  A    between atoms: _11  and  _12
REMARK    6  A    between atoms: _15  and  _17
REMARK    7  A    between atoms: _17  and  _18
REMARK    8  A    between atoms: _17  and  _20
REMARK    9  A    between atoms: _20  and  _21
REMARK   10  A    between atoms: _27  and  _29
REMARK   11  A    between atoms: _29  and  _30
REMARK   12  A    between atoms: _29  and  _32
REMARK   13  A    between atoms: _32  and  _33
REMARK   14  A    between atoms: _36  and  _38
REMARK   15  A    between atoms: _38  and  _39
REMARK   16  A    between atoms: _38  and  _41
REMARK   17  A    between atoms: _41  and  _42
REMARK   18  A    between atoms: _45  and  _47
REMARK   19  A    between atoms: _47  and  _48
REMARK   20  A    between atoms: _47  and  _50
REMARK   21  A    between atoms: _50  and  _51
REMARK   22  A    between atoms: _53  and  _55
REMARK   23  A    between atoms: _55  and  _56
REMARK   24  A    between atoms: _55  and  _58
REMARK   25  A    between atoms: _58  and  _59
REMARK   26  A    between atoms: _61  and  _63
REMARK   27  A    between atoms: _63  and  _64
REMARK   28  A    between atoms: _63  and  _66
REMARK   29  A    between atoms: _66  and  _67
REMARK   30  A    between atoms: _70  and  _72
REMARK   31  A    between atoms: _72  and  _73
REMARK   32  A    between atoms: _72  and  _75
REMARK   33  A    between atoms: _75  and  _76
REMARK   34  A    between atoms: _81  and  _83
REMARK   35  A    between atoms: _83  and  _84
REMARK   36  A    between atoms: _83  and  _86
REMARK   37  A    between atoms: _86  and  _87
REMARK   38  A    between atoms: _87  and  _88
REMARK   39  A    between atoms: _91  and  _93
REMARK   40  A    between atoms: _93  and  _94
REMARK   41  A    between atoms: _93  and  _96
REMARK   42  A    between atoms: _96  and  _97
REMARK   43  A    between atoms: _100  and  _102
REMARK   44  A    between atoms: _102  and  _103
REMARK   45  A    between atoms: _105  and  _107
REMARK   46  A    between atoms: _107  and  _108
REMARK   47  A    between atoms: _107  and  _110
REMARK   48  A    between atoms: _110  and  _111
REMARK   49  A    between atoms: _111  and  _112
REMARK   50  A    between atoms: _115  and  _117
REMARK   51  A    between atoms: _117  and  _118
REMARK   52  A    between atoms: _117  and  _120
REMARK   53  A    between atoms: _120  and  _121
REMARK   54  A    between atoms: _121  and  _122
REMARK   55  A    between atoms: _122  and  _123
REMARK   56  A    between atoms: _132  and  _134
REMARK   57  A    between atoms: _134  and  _135
REMARK   58  A    between atoms: _134  and  _137
REMARK   59  A    between atoms: _137  and  _138
REMARK   60  A    between atoms: _138  and  _139
REMARK   61  A    between atoms: _144  and  _146
REMARK   62  A    between atoms: _146  and  _147
REMARK   63  A    between atoms: _146  and  _149
REMARK   64  A    between atoms: _149  and  _150
REMARK   65  A    between atoms: _153  and  _155
REMARK   66  A    between atoms: _155  and  _156
REMARK   67  A    between atoms: _155  and  _158
REMARK   68  A    between atoms: _158  and  _159
REMARK   69  A    between atoms: _162  and  _164
REMARK   70  A    between atoms: _164  and  _165
REMARK   71  A    between atoms: _164  and  _167
REMARK   72  A    between atoms: _167  and  _168
REMARK   73  A    between atoms: _168  and  _169
REMARK   74  A    between atoms: _174  and  _176
REMARK   75  A    between atoms: _176  and  _177
REMARK   76  A    between atoms: _176  and  _179
REMARK   77  A    between atoms: _179  and  _180
REMARK   78  A    between atoms: _185  and  _186
REMARK   79  A    between atoms: _188  and  _190
REMARK   80  A    between atoms: _190  and  _191
REMARK   81  A    between atoms: _190  and  _193
REMARK   82  A    between atoms: _193  and  _194
REMARK   83  A    between atoms: _196  and  _198
REMARK   84  A    between atoms: _198  and  _199
REMARK   85  A    between atoms: _198  and  _201
REMARK   86  A    between atoms: _201  and  _202
REMARK   87  A    between atoms: _212  and  _214
REMARK   88  A    between atoms: _214  and  _215
REMARK   89  A    between atoms: _214  and  _217
REMARK   90  A    between atoms: _217  and  _218
REMARK   91  A    between atoms: _218  and  _219
REMARK   92  A    between atoms: _221  and  _223
REMARK   93  A    between atoms: _223  and  _224
REMARK   94  A    between atoms: _226  and  _228
REMARK   95  A    between atoms: _228  and  _229
REMARK   96  A    between atoms: _228  and  _231
REMARK   97  A    between atoms: _231  and  _232
REMARK   98  A    between atoms: _235  and  _237
REMARK   99  A    between atoms: _237  and  _238
REMARK  100  A    between atoms: _237  and  _240
REMARK  101  A    between atoms: _240  and  _241
REMARK  102  A    between atoms: _241  and  _242
REMARK  103  A    between atoms: _244  and  _246
REMARK  104  A    between atoms: _246  and  _247
REMARK  105  A    between atoms: _246  and  _249
REMARK  106  A    between atoms: _252  and  _254
REMARK  107  A    between atoms: _254  and  _255
REMARK  108  A    between atoms: _254  and  _257
REMARK  109  A    between atoms: _257  and  _258
REMARK  110  A    between atoms: _264  and  _266
REMARK  111  A    between atoms: _266  and  _267
REMARK  112  A    between atoms: _270  and  _272
REMARK  113  A    between atoms: _272  and  _273
REMARK  114  A    between atoms: _272  and  _275
REMARK  115  A    between atoms: _275  and  _276
REMARK  116  A    between atoms: _276  and  _277
REMARK  117  A    between atoms: _279  and  _281
REMARK  118  A    between atoms: _281  and  _282
REMARK  119  A    between atoms: _284  and  _286
REMARK  120  A    between atoms: _286  and  _287
REMARK  121  A    between atoms: _286  and  _289
REMARK  122  A    between atoms: _289  and  _290
REMARK  123  A    between atoms: _290  and  _291
REMARK  124  A    between atoms: _291  and  _292
REMARK  125  A    between atoms: _301  and  _303
REMARK  126  A    between atoms: _303  and  _304
REMARK  127  A    between atoms: _303  and  _306
REMARK  128  A    between atoms: _306  and  _307
REMARK  129  A    between atoms: _309  and  _311
REMARK  130  A    between atoms: _311  and  _312
REMARK  131  A    between atoms: _311  and  _314
REMARK  132  A    between atoms: _314  and  _315
REMARK  133  A    between atoms: _318  and  _320
REMARK  134  A    between atoms: _320  and  _321
REMARK  135  A    between atoms: _320  and  _323
REMARK  136  A    between atoms: _323  and  _324
REMARK  137  A    between atoms: _329  and  _330
REMARK  138  A    between atoms: _332  and  _334
REMARK  139  A    between atoms: _334  and  _335
REMARK  140  A    between atoms: _334  and  _337
REMARK  141  A    between atoms: _337  and  _338
REMARK  142  A    between atoms: _344  and  _346
REMARK  143  A    between atoms: _346  and  _347
REMARK  144  A    between atoms: _350  and  _352
REMARK  145  A    between atoms: _352  and  _353
REMARK  146  A    between atoms: _352  and  _355
REMARK  147  A    between atoms: _355  and  _356
REMARK  148  A    between atoms: _359  and  _361
REMARK  149  A    between atoms: _361  and  _362
REMARK  150  A    between atoms: _361  and  _364
REMARK  151  A    between atoms: _364  and  _365
REMARK  152  A    between atoms: _371  and  _373
REMARK  153  A    between atoms: _373  and  _374
REMARK  154  A    between atoms: _373  and  _376
REMARK  155  A    between atoms: _376  and  _377
REMARK  156  A    between atoms: _379  and  _381
REMARK  157  A    between atoms: _381  and  _382
REMARK  158  A    between atoms: _381  and  _384
REMARK  159  A    between atoms: _384  and  _385
REMARK  160  A    between atoms: _385  and  _386
REMARK  161  A    between atoms: _388  and  _390
REMARK  162  A    between atoms: _390  and  _391
REMARK  163  A    between atoms: _390  and  _393
REMARK  164  A    between atoms: _393  and  _394
REMARK  165  A    between atoms: _394  and  _395
REMARK  166  A    between atoms: _400  and  _402
REMARK  167  A    between atoms: _402  and  _403
REMARK  168  A    between atoms: _402  and  _405
REMARK  169  A    between atoms: _407  and  _409
REMARK  170  A    between atoms: _409  and  _410
REMARK  171  A    between atoms: _409  and  _412
REMARK  172  A    between atoms: _412  and  _413
REMARK  173  A    between atoms: _413  and  _414
REMARK  174  A    between atoms: _416  and  _418
REMARK  175  A    between atoms: _418  and  _419
REMARK  176  A    between atoms: _418  and  _421
REMARK  177  A    between atoms: _421  and  _422
REMARK  178  A    between atoms: _425  and  _427
REMARK  179  A    between atoms: _427  and  _428
REMARK  180  A    between atoms: _427  and  _430
REMARK  181  A    between atoms: _430  and  _431
REMARK  182  A    between atoms: _434  and  _436
REMARK  183  A    between atoms: _436  and  _437
REMARK  184  A    between atoms: _436  and  _439
REMARK  185  A    between atoms: _439  and  _440
REMARK  186  A    between atoms: _443  and  _445
REMARK  187  A    between atoms: _445  and  _446
REMARK  188  A    between atoms: _449  and  _451
REMARK  189  A    between atoms: _451  and  _452
REMARK  190  A    between atoms: _451  and  _454
REMARK  191  A    between atoms: _454  and  _455
REMARK  192  A    between atoms: _458  and  _460
REMARK  193  A    between atoms: _460  and  _461
REMARK  194  A    between atoms: _460  and  _463
REMARK  195  A    between atoms: _463  and  _464
REMARK  196  A    between atoms: _469  and  _471
REMARK  197  A    between atoms: _471  and  _472
REMARK  198  A    between atoms: _471  and  _474
REMARK  199  A    between atoms: _474  and  _475
REMARK  200  A    between atoms: _475  and  _476
REMARK  201  A    between atoms: _481  and  _483
REMARK  202  A    between atoms: _483  and  _484
REMARK  203  A    between atoms: _483  and  _486
REMARK  204  A    between atoms: _486  and  _487
REMARK  205  A    between atoms: _493  and  _495
REMARK  206  A    between atoms: _495  and  _496
REMARK  207  A    between atoms: _495  and  _498
REMARK  208  A    between atoms: _498  and  _499
REMARK  209  A    between atoms: _502  and  _504
REMARK  210  A    between atoms: _504  and  _505
REMARK  211  A    between atoms: _504  and  _507
REMARK  212  A    between atoms: _507  and  _508
REMARK  213  A    between atoms: _514  and  _516
REMARK  214  A    between atoms: _516  and  _517
REMARK  215  A    between atoms: _516  and  _519
REMARK  216  A    between atoms: _519  and  _520
REMARK  217  A    between atoms: _523  and  _525
REMARK  218  A    between atoms: _525  and  _526
REMARK  219  A    between atoms: _525  and  _528
REMARK  220  A    between atoms: _528  and  _529
REMARK  221  A    between atoms: _532  and  _534
REMARK  222  A    between atoms: _534  and  _535
REMARK  223  A    between atoms: _534  and  _537
REMARK  224  A    between atoms: _540  and  _542
REMARK  225  A    between atoms: _542  and  _543
REMARK  226  A    between atoms: _542  and  _545
REMARK  227  A    between atoms: _545  and  _546
REMARK  228  A    between atoms: _549  and  _551
REMARK  229  A    between atoms: _551  and  _552
REMARK  230  A    between atoms: _551  and  _554
REMARK  231  A    between atoms: _554  and  _555
REMARK  232  A    between atoms: _562  and  _563
REMARK  233  A    between atoms: _568  and  _570
REMARK  234  A    between atoms: _570  and  _571
REMARK  235  A    between atoms: _570  and  _573
REMARK  236  A    between atoms: _573  and  _574
REMARK  237  A    between atoms: _574  and  _575
REMARK  238  A    between atoms: _577  and  _579
REMARK  239  A    between atoms: _579  and  _580
REMARK  240  A    between atoms: _579  and  _582
REMARK  241  A    between atoms: _582  and  _583
REMARK  242  A    between atoms: _583  and  _584
REMARK  243  A    between atoms: _586  and  _588
REMARK  244  A    between atoms: _588  and  _589
REMARK  245  A    between atoms: _592  and  _594
REMARK  246  A    between atoms: _594  and  _595
REMARK  247  A    between atoms: _594  and  _597
REMARK  248  A    between atoms: _597  and  _598
REMARK  249  A    between atoms: _601  and  _603
REMARK  250  A    between atoms: _603  and  _604
REMARK  251  A    between atoms: _603  and  _606
REMARK  252  A    between atoms: _606  and  _607
REMARK  253  A    between atoms: _610  and  _612
REMARK  254  A    between atoms: _612  and  _613
REMARK  255  A    between atoms: _612  and  _615
REMARK  256  A    between atoms: _615  and  _616
REMARK  257  A    between atoms: _618  and  _620
REMARK  258  A    between atoms: _620  and  _621
REMARK  259  A    between atoms: _620  and  _623
REMARK  260  A    between atoms: _626  and  _628
REMARK  261  A    between atoms: _628  and  _629
REMARK  262  A    between atoms: _628  and  _631
REMARK  263  A    between atoms: _631  and  _632
REMARK  264  A    between atoms: _632  and  _633
REMARK  265  A    between atoms: _638  and  _640
REMARK  266  A    between atoms: _640  and  _641
REMARK  267  A    between atoms: _640  and  _643
REMARK  268  A    between atoms: _647  and  _648
REMARK  269  A    between atoms: _653  and  _655
REMARK  270  A    between atoms: _655  and  _656
REMARK  271  A    between atoms: _655  and  _658
REMARK  272  A    between atoms: _658  and  _659
REMARK                            x       y       z     vdW  Elec       q    Type
REMARK                         _______ _______ _______ _____ _____    ______ ____
ROOT
ATOM      1  CA  GLN A   1      19.391  -3.716   1.323  0.00  0.00    +0.145 C 
ENDROOT
BRANCH   1   2
ATOM      2  C   GLN A   1      18.996  -2.391   0.678  0.00  0.00    +0.238 C 
ATOM      3  O   GLN A   1      18.256  -1.606   1.259  0.00  0.00    -0.274 OA
ATOM      4  N   CYS A   2      19.496  -2.143  -0.528  0.00  0.00    -0.298 N 
ATOM      5  H   CYS A   2      20.132  -2.837  -0.971  0.00  0.00    +0.150 HD
BRANCH   4   6
ATOM      6  CA  CYS A   2      19.168  -0.915  -1.240  0.00  0.00    +0.149 C 
BRANCH   6   7
ATOM      7  C   CYS A   2      17.670  -0.801  -1.519  0.00  0.00    +0.228 C 
ATOM      8  O   CYS A   2      17.072   0.266  -1.325  0.00  0.00    -0.286 OA
ENDBRANCH   6   7
BRANCH   6   9
ATOM      9  CB  CYS A   2      19.941  -0.836  -2.557  0.00  0.00    +0.096 C 
ATOM     10  SG  CYS A   2      21.688  -0.393  -2.353  0.00  0.00    -0.080 S 
ENDBRANCH   6   9
ENDBRANCH   4   6
ENDBRANCH   1   2
BRANCH   1  11
ATOM     11  N   GLN A   1      19.325  -4.763   0.323  0.00  0.00    -0.238 NA
ATOM     12  H   GLN A   1      20.198  -5.230   0.004  0.00  0.00    +0.142 HD
ENDBRANCH   1  11
BRANCH   1  13
ATOM     13  CB  GLN A   1      20.803  -3.620   1.911  0.00  0.00    +0.036 C 
BRANCH  13  14
ATOM     14  CG  GLN A   1      21.228  -4.857   2.691  0.00  0.00    +0.087 C 
BRANCH  14  15
ATOM     15  CD  GLN A   1      22.020  -5.833   1.845  0.00  0.00    +0.219 C 
ATOM     16  NE2 GLN A   1      22.973  -6.514   2.470  0.00  0.00    -0.329 N 
ATOM     17 HE21 GLN A   1      23.146  -6.356   3.483  0.00  0.00    +0.145 HD
ATOM     18 HE22 GLN A   1      23.547  -7.205   1.946  0.00  0.00    +0.145 HD
ATOM     19  OE1 GLN A   1      21.773  -5.981   0.645  0.00  0.00    -0.275 OA
ENDBRANCH  14  15
ENDBRANCH  13  14
ENDBRANCH   1  13
TORSDOF 8
REMARK  Name = ../refined-set-2016/3b65/3b65_pocket.pdb
REMARK  272 active torsions:
REMARK  status: ('A' for Active; 'I' for Inactive)
REMARK    1  A    between atoms: _1  and  _3
REMARK    2  A    between atoms: _3  and  _4
REMARK    3  A    between atoms: _3  and  _6
REMARK    4  A    between atoms: _9  and  _11
REMARK    5  A    between atoms: _11  and  _12
REMARK    6  A    between atoms: _15  and  _17
REMARK    7  A    between atoms: _17  and  _18
REMARK    8  A    between atoms: _17  and  _20
REMARK    9  A    between atoms: _20  and  _21
REMARK   10  A    between atoms: _27  and  _29
REMARK   11  A    between atoms: _29  and  _30
REMARK   12  A    between atoms: _29  and  _32
REMARK   13  A    between atoms: _32  and  _33
REMARK   14  A    between atoms: _36  and  _38
REMARK   15  A    between atoms: _38  and  _39
REMARK   16  A    between atoms: _38  and  _41
REMARK   17  A    between atoms: _41  and  _42
REMARK   18  A    between atoms: _45  and  _47
REMARK   19  A    between atoms: _47  and  _48
REMARK   20  A    between atoms: _47  and  _50
REMARK   21  A    between atoms: _50  and  _51
REMARK   22  A    between atoms: _53  and  _55
REMARK   23  A    between atoms: _55  and  _56
REMARK   24  A    between atoms: _55  and  _58
REMARK   25  A    between atoms: _58  and  _59
REMARK   26  A    between atoms: _61  and  _63
REMARK   27  A    between atoms: _63  and  _64
REMARK   28  A    between atoms: _63  and  _66
REMARK   29  A    between atoms: _66  and  _67
REMARK   30  A    between atoms: _70  and  _72
REMARK   31  A    between atoms: _72  and  _73
REMARK   32  A    between atoms: _72  and  _75
REMARK   33  A    between atoms: _75  and  _76
REMARK   34  A    between atoms: _81  and  _83
REMARK   35  A    between atoms: _83  and  _84
REMARK   36  A    between atoms: _83  and  _86
REMARK   37  A    between atoms: _86  and  _87
REMARK   38  A    between atoms: _87  and  _88
REMARK   39  A    between atoms: _91  and  _93
REMARK   40  A    between atoms: _93  and  _94
REMARK   41  A    between atoms: _93  and  _96
REMARK   42  A    between atoms: _96  and  _97
REMARK   43  A    between atoms: _100  and  _102
REMARK   44  A    between atoms: _102  and  _103
REMARK   45  A    between atoms: _105  and  _107
REMARK   46  A    between atoms: _107  and  _108
REMARK   47  A    between atoms: _107  and  _110
REMARK   48  A    between atoms: _110  and  _111
REMARK   49  A    between atoms: _111  and  _112
REMARK   50  A    between atoms: _115  and  _117
REMARK   51  A    between atoms: _117  and  _118
REMARK   52  A    between atoms: _117  and  _120
REMARK   53  A    between atoms: _120  and  _121
REMARK   54  A    between atoms: _121  and  _122
REMARK   55  A    between atoms: _122  and  _123
REMARK   56  A    between atoms: _132  and  _134
REMARK   57  A    between atoms: _134  and  _135
REMARK   58  A    between atoms: _134  and  _137
REMARK   59  A    between atoms: _137  and  _138
REMARK   60  A    between atoms: _138  and  _139
REMARK   61  A    between atoms: _144  and  _146
REMARK   62  A    between atoms: _146  and  _147
REMARK   63  A    between atoms: _146  and  _149
REMARK   64  A    between atoms: _149  and  _150
REMARK   65  A    between atoms: _153  and  _155
REMARK   66  A    between atoms: _155  and  _156
REMARK   67  A    between atoms: _155  and  _158
REMARK   68  A    between atoms: _158  and  _159
REMARK   69  A    between atoms: _162  and  _164
REMARK   70  A    between atoms: _164  and  _165
REMARK   71  A    between atoms: _164  and  _167
REMARK   72  A    between atoms: _167  and  _168
REMARK   73  A    between atoms: _168  and  _169
REMARK   74  A    between atoms: _174  and  _176
REMARK   75  A    between atoms: _176  and  _177
REMARK   76  A    between atoms: _176  and  _179
REMARK   77  A    between atoms: _179  and  _180
REMARK   78  A    between atoms: _185  and  _186
REMARK   79  A    between atoms: _188  and  _190
REMARK   80  A    between atoms: _190  and  _191
REMARK   81  A    between atoms: _190  and  _193
REMARK   82  A    between atoms: _193  and  _194
REMARK   83  A    between atoms: _196  and  _198
REMARK   84  A    between atoms: _198  and  _199
REMARK   85  A    between atoms: _198  and  _201
REMARK   86  A    between atoms: _201  and  _202
REMARK   87  A    between atoms: _212  and  _214
REMARK   88  A    between atoms: _214  and  _215
REMARK   89  A    between atoms: _214  and  _217
REMARK   90  A    between atoms: _217  and  _218
REMARK   91  A    between atoms: _218  and  _219
REMARK   92  A    between atoms: _221  and  _223
REMARK   93  A    between atoms: _223  and  _224
REMARK   94  A    between atoms: _226  and  _228
REMARK   95  A    between atoms: _228  and  _229
REMARK   96  A    between atoms: _228  and  _231
REMARK   97  A    between atoms: _231  and  _232
REMARK   98  A    between atoms: _235  and  _237
REMARK   99  A    between atoms: _237  and  _238
REMARK  100  A    between atoms: _237  and  _240
REMARK  101  A    between atoms: _240  and  _241
REMARK  102  A    between atoms: _241  and  _242
REMARK  103  A    between atoms: _244  and  _246
REMARK  104  A    between atoms: _246  and  _247
REMARK  105  A    between atoms: _246  and  _249
REMARK  106  A    between atoms: _252  and  _254
REMARK  107  A    between atoms: _254  and  _255
REMARK  108  A    between atoms: _254  and  _257
REMARK  109  A    between atoms: _257  and  _258
REMARK  110  A    between atoms: _264  and  _266
REMARK  111  A    between atoms: _266  and  _267
REMARK  112  A    between atoms: _270  and  _272
REMARK  113  A    between atoms: _272  and  _273
REMARK  114  A    between atoms: _272  and  _275
REMARK  115  A    between atoms: _275  and  _276
REMARK  116  A    between atoms: _276  and  _277
REMARK  117  A    between atoms: _279  and  _281
REMARK  118  A    between atoms: _281  and  _282
REMARK  119  A    between atoms: _284  and  _286
REMARK  120  A    between atoms: _286  and  _287
REMARK  121  A    between atoms: _286  and  _289
REMARK  122  A    between atoms: _289  and  _290
REMARK  123  A    between atoms: _290  and  _291
REMARK  124  A    between atoms: _291  and  _292
REMARK  125  A    between atoms: _301  and  _303
REMARK  126  A    between atoms: _303  and  _304
REMARK  127  A    between atoms: _303  and  _306
REMARK  128  A    between atoms: _306  and  _307
REMARK  129  A    between atoms: _309  and  _311
REMARK  130  A    between atoms: _311  and  _312
REMARK  131  A    between atoms: _311  and  _314
REMARK  132  A    between atoms: _314  and  _315
REMARK  133  A    between atoms: _318  and  _320
REMARK  134  A    between atoms: _320  and  _321
REMARK  135  A    between atoms: _320  and  _323
REMARK  136  A    between atoms: _323  and  _324
REMARK  137  A    between atoms: _329  and  _330
REMARK  138  A    between atoms: _332  and  _334
REMARK  139  A    between atoms: _334  and  _335
REMARK  140  A    between atoms: _334  and  _337
REMARK  141  A    between atoms: _337  and  _338
REMARK  142  A    between atoms: _344  and  _346
REMARK  143  A    between atoms: _346  and  _347
REMARK  144  A    between atoms: _350  and  _352
REMARK  145  A    between atoms: _352  and  _353
REMARK  146  A    between atoms: _352  and  _355
REMARK  147  A    between atoms: _355  and  _356
REMARK  148  A    between atoms: _359  and  _361
REMARK  149  A    between atoms: _361  and  _362
REMARK  150  A    between atoms: _361  and  _364
REMARK  151  A    between atoms: _364  and  _365
REMARK  152  A    between atoms: _371  and  _373
REMARK  153  A    between atoms: _373  and  _374
REMARK  154  A    between atoms: _373  and  _376
REMARK  155  A    between atoms: _376  and  _377
REMARK  156  A    between atoms: _379  and  _381
REMARK  157  A    between atoms: _381  and  _382
REMARK  158  A    between atoms: _381  and  _384
REMARK  159  A    between atoms: _384  and  _385
REMARK  160  A    between atoms: _385  and  _386
REMARK  161  A    between atoms: _388  and  _390
REMARK  162  A    between atoms: _390  and  _391
REMARK  163  A    between atoms: _390  and  _393
REMARK  164  A    between atoms: _393  and  _394
REMARK  165  A    between atoms: _394  and  _395
REMARK  166  A    between atoms: _400  and  _402
REMARK  167  A    between atoms: _402  and  _403
REMARK  168  A    between atoms: _402  and  _405
REMARK  169  A    between atoms: _407  and  _409
REMARK  170  A    between atoms: _409  and  _410
REMARK  171  A    between atoms: _409  and  _412
REMARK  172  A    between atoms: _412  and  _413
REMARK  173  A    between atoms: _413  and  _414
REMARK  174  A    between atoms: _416  and  _418
REMARK  175  A    between atoms: _418  and  _419
REMARK  176  A    between atoms: _418  and  _421
REMARK  177  A    between atoms: _421  and  _422
REMARK  178  A    between atoms: _425  and  _427
REMARK  179  A    between atoms: _427  and  _428
REMARK  180  A    between atoms: _427  and  _430
REMARK  181  A    between atoms: _430  and  _431
REMARK  182  A    between atoms: _434  and  _436
REMARK  183  A    between atoms: _436  and  _437
REMARK  184  A    between atoms: _436  and  _439
REMARK  185  A    between atoms: _439  and  _440
REMARK  186  A    between atoms: _443  and  _445
REMARK  187  A    between atoms: _445  and  _446
REMARK  188  A    between atoms: _449  and  _451
REMARK  189  A    between atoms: _451  and  _452
REMARK  190  A    between atoms: _451  and  _454
REMARK  191  A    between atoms: _454  and  _455
REMARK  192  A    between atoms: _458  and  _460
REMARK  193  A    between atoms: _460  and  _461
REMARK  194  A    between atoms: _460  and  _463
REMARK  195  A    between atoms: _463  and  _464
REMARK  196  A    between atoms: _469  and  _471
REMARK  197  A    between atoms: _471  and  _472
REMARK  198  A    between atoms: _471  and  _474
REMARK  199  A    between atoms: _474  and  _475
REMARK  200  A    between atoms: _475  and  _476
REMARK  201  A    between atoms: _481  and  _483
REMARK  202  A    between atoms: _483  and  _484
REMARK  203  A    between atoms: _483  and  _486
REMARK  204  A    between atoms: _486  and  _487
REMARK  205  A    between atoms: _493  and  _495
REMARK  206  A    between atoms: _495  and  _496
REMARK  207  A    between atoms: _495  and  _498
REMARK  208  A    between atoms: _498  and  _499
REMARK  209  A    between atoms: _502  and  _504
REMARK  210  A    between atoms: _504  and  _505
REMARK  211  A    between atoms: _504  and  _507
REMARK  212  A    between atoms: _507  and  _508
REMARK  213  A    between atoms: _514  and  _516
REMARK  214  A    between atoms: _516  and  _517
REMARK  215  A    between atoms: _516  and  _519
REMARK  216  A    between atoms: _519  and  _520
REMARK  217  A    between atoms: _523  and  _525
REMARK  218  A    between atoms: _525  and  _526
REMARK  219  A    between atoms: _525  and  _528
REMARK  220  A    between atoms: _528  and  _529
REMARK  221  A    between atoms: _532  and  _534
REMARK  222  A    between atoms: _534  and  _535
REMARK  223  A    between atoms: _534  and  _537
REMARK  224  A    between atoms: _540  and  _542
REMARK  225  A    between atoms: _542  and  _543
REMARK  226  A    between atoms: _542  and  _545
REMARK  227  A    between atoms: _545  and  _546
REMARK  228  A    between atoms: _549  and  _551
REMARK  229  A    between atoms: _551  and  _552
REMARK  230  A    between atoms: _551  and  _554
REMARK  231  A    between atoms: _554  and  _555
REMARK  232  A    between atoms: _562  and  _563
REMARK  233  A    between atoms: _568  and  _570
REMARK  234  A    between atoms: _570  and  _571
REMARK  235  A    between atoms: _570  and  _573
REMARK  236  A    between atoms: _573  and  _574
REMARK  237  A    between atoms: _574  and  _575
REMARK  238  A    between atoms: _577  and  _579
REMARK  239  A    between atoms: _579  and  _580
REMARK  240  A    between atoms: _579  and  _582
REMARK  241  A    between atoms: _582  and  _583
REMARK  242  A    between atoms: _583  and  _584
REMARK  243  A    between atoms: _586  and  _588
REMARK  244  A    between atoms: _588  and  _589
REMARK  245  A    between atoms: _592  and  _594
REMARK  246  A    between atoms: _594  and  _595
REMARK  247  A    between atoms: _594  and  _597
REMARK  248  A    between atoms: _597  and  _598
REMARK  249  A    between atoms: _601  and  _603
REMARK  250  A    between atoms: _603  and  _604
REMARK  251  A    between atoms: _603  and  _606
REMARK  252  A    between atoms: _606  and  _607
REMARK  253  A    between atoms: _610  and  _612
REMARK  254  A    between atoms: _612  and  _613
REMARK  255  A    between atoms: _612  and  _615
REMARK  256  A    between atoms: _615  and  _616
REMARK  257  A    between atoms: _618  and  _620
REMARK  258  A    between atoms: _620  and  _621
REMARK  259  A    between atoms: _620  and  _623
REMARK  260  A    between atoms: _626  and  _628
REMARK  261  A    between atoms: _628  and  _629
REMARK  262  A    between atoms: _628  and  _631
REMARK  263  A    between atoms: _631  and  _632
REMARK  264  A    between atoms: _632  and  _633
REMARK  265  A    between atoms: _638  and  _640
REMARK  266  A    between atoms: _640  and  _641
REMARK  267  A    between atoms: _640  and  _643
REMARK  268  A    between atoms: _647  and  _648
REMARK  269  A    between atoms: _653  and  _655
REMARK  270  A    between atoms: _655  and  _656
REMARK  271  A    between atoms: _655  and  _658
REMARK  272  A    between atoms: _658  and  _659
REMARK                            x       y       z     vdW  Elec       q    Type
REMARK                         _______ _______ _______ _____ _____    ______ ____
ROOT
ATOM      1  CA  MET A   1      16.000   1.668   1.768  0.00  0.00    +0.134 C 
ENDROOT
BRANCH   1   2
ATOM      2  N   MET A   1      15.807   0.260   1.457  0.00  0.00    -0.239 NA
ATOM      3  H   MET A   1      16.567  -0.271   0.985  0.00  0.00    +0.142 HD
ENDBRANCH   1   2
BRANCH   1   4
ATOM      4  C   MET A   1      15.187   2.544   0.818  0.00  0.00    +0.224 C 
ATOM      5  O   MET A   1      14.748   3.632   1.191  0.00  0.00    -0.287 OA
ENDBRANCH   1   4
BRANCH   1   6
ATOM      6  CB  MET A   1      17.485   2.031   1.693  0.00  0.00    +0.037 C 
BRANCH   6   7
ATOM      7  CG  MET A   1      18.309   1.321   2.751  0.00  0.00    +0.059 C 
BRANCH   7   8
ATOM      8  SD  MET A   1      20.007   1.883   2.881  0.00  0.00    -0.139 S 
ATOM      9  CE  MET A   1      20.842   0.803   1.621  0.00  0.00    +0.069 C 
ENDBRANCH   7   8
ENDBRANCH   6   7
ENDBRANCH   1   6
TORSDOF 5
REMARK  Name = ../refined-set-2016/3b65/3b65_pocket.pdb
REMARK  272 active torsions:
REMARK  status: ('A' for Active; 'I' for Inactive)
REMARK    1  A    between atoms: _1  and  _3
REMARK    2  A    between atoms: _3  and  _4
REMARK    3  A    between atoms: _3  and  _6
REMARK    4  A    between atoms: _9  and  _11
REMARK    5  A    between atoms: _11  and  _12
REMARK    6  A    between atoms: _15  and  _17
REMARK    7  A    between atoms: _17  and  _18
REMARK    8  A    between atoms: _17  and  _20
REMARK    9  A    between atoms: _20  and  _21
REMARK   10  A    between atoms: _27  and  _29
REMARK   11  A    between atoms: _29  and  _30
REMARK   12  A    between atoms: _29  and  _32
REMARK   13  A    between atoms: _32  and  _33
REMARK   14  A    between atoms: _36  and  _38
REMARK   15  A    between atoms: _38  and  _39
REMARK   16  A    between atoms: _38  and  _41
REMARK   17  A    between atoms: _41  and  _42
REMARK   18  A    between atoms: _45  and  _47
REMARK   19  A    between atoms: _47  and  _48
REMARK   20  A    between atoms: _47  and  _50
REMARK   21  A    between atoms: _50  and  _51
REMARK   22  A    between atoms: _53  and  _55
REMARK   23  A    between atoms: _55  and  _56
REMARK   24  A    between atoms: _55  and  _58
REMARK   25  A    between atoms: _58  and  _59
REMARK   26  A    between atoms: _61  and  _63
REMARK   27  A    between atoms: _63  and  _64
REMARK   28  A    between atoms: _63  and  _66
REMARK   29  A    between atoms: _66  and  _67
REMARK   30  A    between atoms: _70  and  _72
REMARK   31  A    between atoms: _72  and  _73
REMARK   32  A    between atoms: _72  and  _75
REMARK   33  A    between atoms: _75  and  _76
REMARK   34  A    between atoms: _81  and  _83
REMARK   35  A    between atoms: _83  and  _84
REMARK   36  A    between atoms: _83  and  _86
REMARK   37  A    between atoms: _86  and  _87
REMARK   38  A    between atoms: _87  and  _88
REMARK   39  A    between atoms: _91  and  _93
REMARK   40  A    between atoms: _93  and  _94
REMARK   41  A    between atoms: _93  and  _96
REMARK   42  A    between atoms: _96  and  _97
REMARK   43  A    between atoms: _100  and  _102
REMARK   44  A    between atoms: _102  and  _103
REMARK   45  A    between atoms: _105  and  _107
REMARK   46  A    between atoms: _107  and  _108
REMARK   47  A    between atoms: _107  and  _110
REMARK   48  A    between atoms: _110  and  _111
REMARK   49  A    between atoms: _111  and  _112
REMARK   50  A    between atoms: _115  and  _117
REMARK   51  A    between atoms: _117  and  _118
REMARK   52  A    between atoms: _117  and  _120
REMARK   53  A    between atoms: _120  and  _121
REMARK   54  A    between atoms: _121  and  _122
REMARK   55  A    between atoms: _122  and  _123
REMARK   56  A    between atoms: _132  and  _134
REMARK   57  A    between atoms: _134  and  _135
REMARK   58  A    between atoms: _134  and  _137
REMARK   59  A    between atoms: _137  and  _138
REMARK   60  A    between atoms: _138  and  _139
REMARK   61  A    between atoms: _144  and  _146
REMARK   62  A    between atoms: _146  and  _147
REMARK   63  A    between atoms: _146  and  _149
REMARK   64  A    between atoms: _149  and  _150
REMARK   65  A    between atoms: _153  and  _155
REMARK   66  A    between atoms: _155  and  _156
REMARK   67  A    between atoms: _155  and  _158
REMARK   68  A    between atoms: _158  and  _159
REMARK   69  A    between atoms: _162  and  _164
REMARK   70  A    between atoms: _164  and  _165
REMARK   71  A    between atoms: _164  and  _167
REMARK   72  A    between atoms: _167  and  _168
REMARK   73  A    between atoms: _168  and  _169
REMARK   74  A    between atoms: _174  and  _176
REMARK   75  A    between atoms: _176  and  _177
REMARK   76  A    between atoms: _176  and  _179
REMARK   77  A    between atoms: _179  and  _180
REMARK   78  A    between atoms: _185  and  _186
REMARK   79  A    between atoms: _188  and  _190
REMARK   80  A    between atoms: _190  and  _191
REMARK   81  A    between atoms: _190  and  _193
REMARK   82  A    between atoms: _193  and  _194
REMARK   83  A    between atoms: _196  and  _198
REMARK   84  A    between atoms: _198  and  _199
REMARK   85  A    between atoms: _198  and  _201
REMARK   86  A    between atoms: _201  and  _202
REMARK   87  A    between atoms: _212  and  _214
REMARK   88  A    between atoms: _214  and  _215
REMARK   89  A    between atoms: _214  and  _217
REMARK   90  A    between atoms: _217  and  _218
REMARK   91  A    between atoms: _218  and  _219
REMARK   92  A    between atoms: _221  and  _223
REMARK   93  A    between atoms: _223  and  _224
REMARK   94  A    between atoms: _226  and  _228
REMARK   95  A    between atoms: _228  and  _229
REMARK   96  A    between atoms: _228  and  _231
REMARK   97  A    between atoms: _231  and  _232
REMARK   98  A    between atoms: _235  and  _237
REMARK   99  A    between atoms: _237  and  _238
REMARK  100  A    between atoms: _237  and  _240
REMARK  101  A    between atoms: _240  and  _241
REMARK  102  A    between atoms: _241  and  _242
REMARK  103  A    between atoms: _244  and  _246
REMARK  104  A    between atoms: _246  and  _247
REMARK  105  A    between atoms: _246  and  _249
REMARK  106  A    between atoms: _252  and  _254
REMARK  107  A    between atoms: _254  and  _255
REMARK  108  A    between atoms: _254  and  _257
REMARK  109  A    between atoms: _257  and  _258
REMARK  110  A    between atoms: _264  and  _266
REMARK  111  A    between atoms: _266  and  _267
REMARK  112  A    between atoms: _270  and  _272
REMARK  113  A    between atoms: _272  and  _273
REMARK  114  A    between atoms: _272  and  _275
REMARK  115  A    between atoms: _275  and  _276
REMARK  116  A    between atoms: _276  and  _277
REMARK  117  A    between atoms: _279  and  _281
REMARK  118  A    between atoms: _281  and  _282
REMARK  119  A    between atoms: _284  and  _286
REMARK  120  A    between atoms: _286  and  _287
REMARK  121  A    between atoms: _286  and  _289
REMARK  122  A    between atoms: _289  and  _290
REMARK  123  A    between atoms: _290  and  _291
REMARK  124  A    between atoms: _291  and  _292
REMARK  125  A    between atoms: _301  and  _303
REMARK  126  A    between atoms: _303  and  _304
REMARK  127  A    between atoms: _303  and  _306
REMARK  128  A    between atoms: _306  and  _307
REMARK  129  A    between atoms: _309  and  _311
REMARK  130  A    between atoms: _311  and  _312
REMARK  131  A    between atoms: _311  and  _314
REMARK  132  A    between atoms: _314  and  _315
REMARK  133  A    between atoms: _318  and  _320
REMARK  134  A    between atoms: _320  and  _321
REMARK  135  A    between atoms: _320  and  _323
REMARK  136  A    between atoms: _323  and  _324
REMARK  137  A    between atoms: _329  and  _330
REMARK  138  A    between atoms: _332  and  _334
REMARK  139  A    between atoms: _334  and  _335
REMARK  140  A    between atoms: _334  and  _337
REMARK  141  A    between atoms: _337  and  _338
REMARK  142  A    between atoms: _344  and  _346
REMARK  143  A    between atoms: _346  and  _347
REMARK  144  A    between atoms: _350  and  _352
REMARK  145  A    between atoms: _352  and  _353
REMARK  146  A    between atoms: _352  and  _355
REMARK  147  A    between atoms: _355  and  _356
REMARK  148  A    between atoms: _359  and  _361
REMARK  149  A    between atoms: _361  and  _362
REMARK  150  A    between atoms: _361  and  _364
REMARK  151  A    between atoms: _364  and  _365
REMARK  152  A    between atoms: _371  and  _373
REMARK  153  A    between atoms: _373  and  _374
REMARK  154  A    between atoms: _373  and  _376
REMARK  155  A    between atoms: _376  and  _377
REMARK  156  A    between atoms: _379  and  _381
REMARK  157  A    between atoms: _381  and  _382
REMARK  158  A    between atoms: _381  and  _384
REMARK  159  A    between atoms: _384  and  _385
REMARK  160  A    between atoms: _385  and  _386
REMARK  161  A    between atoms: _388  and  _390
REMARK  162  A    between atoms: _390  and  _391
REMARK  163  A    between atoms: _390  and  _393
REMARK  164  A    between atoms: _393  and  _394
REMARK  165  A    between atoms: _394  and  _395
REMARK  166  A    between atoms: _400  and  _402
REMARK  167  A    between atoms: _402  and  _403
REMARK  168  A    between atoms: _402  and  _405
REMARK  169  A    between atoms: _407  and  _409
REMARK  170  A    between atoms: _409  and  _410
REMARK  171  A    between atoms: _409  and  _412
REMARK  172  A    between atoms: _412  and  _413
REMARK  173  A    between atoms: _413  and  _414
REMARK  174  A    between atoms: _416  and  _418
REMARK  175  A    between atoms: _418  and  _419
REMARK  176  A    between atoms: _418  and  _421
REMARK  177  A    between atoms: _421  and  _422
REMARK  178  A    between atoms: _425  and  _427
REMARK  179  A    between atoms: _427  and  _428
REMARK  180  A    between atoms: _427  and  _430
REMARK  181  A    between atoms: _430  and  _431
REMARK  182  A    between atoms: _434  and  _436
REMARK  183  A    between atoms: _436  and  _437
REMARK  184  A    between atoms: _436  and  _439
REMARK  185  A    between atoms: _439  and  _440
REMARK  186  A    between atoms: _443  and  _445
REMARK  187  A    between atoms: _445  and  _446
REMARK  188  A    between atoms: _449  and  _451
REMARK  189  A    between atoms: _451  and  _452
REMARK  190  A    between atoms: _451  and  _454
REMARK  191  A    between atoms: _454  and  _455
REMARK  192  A    between atoms: _458  and  _460
REMARK  193  A    between atoms: _460  and  _461
REMARK  194  A    between atoms: _460  and  _463
REMARK  195  A    between atoms: _463  and  _464
REMARK  196  A    between atoms: _469  and  _471
REMARK  197  A    between atoms: _471  and  _472
REMARK  198  A    between atoms: _471  and  _474
REMARK  199  A    between atoms: _474  and  _475
REMARK  200  A    between atoms: _475  and  _476
REMARK  201  A    between atoms: _481  and  _483
REMARK  202  A    between atoms: _483  and  _484
REMARK  203  A    between atoms: _483  and  _486
REMARK  204  A    between atoms: _486  and  _487
REMARK  205  A    between atoms: _493  and  _495
REMARK  206  A    between atoms: _495  and  _496
REMARK  207  A    between atoms: _495  and  _498
REMARK  208  A    between atoms: _498  and  _499
REMARK  209  A    between atoms: _502  and  _504
REMARK  210  A    between atoms: _504  and  _505
REMARK  211  A    between atoms: _504  and  _507
REMARK  212  A    between atoms: _507  and  _508
REMARK  213  A    between atoms: _514  and  _516
REMARK  214  A    between atoms: _516  and  _517
REMARK  215  A    between atoms: _516  and  _519
REMARK  216  A    between atoms: _519  and  _520
REMARK  217  A    between atoms: _523  and  _525
REMARK  218  A    between atoms: _525  and  _526
REMARK  219  A    between atoms: _525  and  _528
REMARK  220  A    between atoms: _528  and  _529
REMARK  221  A    between atoms: _532  and  _534
REMARK  222  A    between atoms: _534  and  _535
REMARK  223  A    between atoms: _534  and  _537
REMARK  224  A    between atoms: _540  and  _542
REMARK  225  A    between atoms: _542  and  _543
REMARK  226  A    between atoms: _542  and  _545
REMARK  227  A    between atoms: _545  and  _546
REMARK  228  A    between atoms: _549  and  _551
REMARK  229  A    between atoms: _551  and  _552
REMARK  230  A    between atoms: _551  and  _554
REMARK  231  A    between atoms: _554  and  _555
REMARK  232  A    between atoms: _562  and  _563
REMARK  233  A    between atoms: _568  and  _570
REMARK  234  A    between atoms: _570  and  _571
REMARK  235  A    between atoms: _570  and  _573
REMARK  236  A    between atoms: _573  and  _574
REMARK  237  A    between atoms: _574  and  _575
REMARK  238  A    between atoms: _577  and  _579
REMARK  239  A    between atoms: _579  and  _580
REMARK  240  A    between atoms: _579  and  _582
REMARK  241  A    between atoms: _582  and  _583
REMARK  242  A    between atoms: _583  and  _584
REMARK  243  A    between atoms: _586  and  _588
REMARK  244  A    between atoms: _588  and  _589
REMARK  245  A    between atoms: _592  and  _594
REMARK  246  A    between atoms: _594  and  _595
REMARK  247  A    between atoms: _594  and  _597
REMARK  248  A    between atoms: _597  and  _598
REMARK  249  A    between atoms: _601  and  _603
REMARK  250  A    between atoms: _603  and  _604
REMARK  251  A    between atoms: _603  and  _606
REMARK  252  A    between atoms: _606  and  _607
REMARK  253  A    between atoms: _610  and  _612
REMARK  254  A    between atoms: _612  and  _613
REMARK  255  A    between atoms: _612  and  _615
REMARK  256  A    between atoms: _615  and  _616
REMARK  257  A    between atoms: _618  and  _620
REMARK  258  A    between atoms: _620  and  _621
REMARK  259  A    between atoms: _620  and  _623
REMARK  260  A    between atoms: _626  and  _628
REMARK  261  A    between atoms: _628  and  _629
REMARK  262  A    between atoms: _628  and  _631
REMARK  263  A    between atoms: _631  and  _632
REMARK  264  A    between atoms: _632  and  _633
REMARK  265  A    between atoms: _638  and  _640
REMARK  266  A    between atoms: _640  and  _641
REMARK  267  A    between atoms: _640  and  _643
REMARK  268  A    between atoms: _647  and  _648
REMARK  269  A    between atoms: _653  and  _655
REMARK  270  A    between atoms: _655  and  _656
REMARK  271  A    between atoms: _655  and  _658
REMARK  272  A    between atoms: _658  and  _659
REMARK                            x       y       z     vdW  Elec       q    Type
REMARK                         _______ _______ _______ _____ _____    ______ ____
ROOT
ATOM      1  CA  LEU A   1      11.912   3.492   3.407  0.00  0.00    +0.133 C 
ENDROOT
BRANCH   1   2
ATOM      2  N   LEU A   1      11.912   2.596   2.251  0.00  0.00    -0.239 NA
ATOM      3  H   LEU A   1      12.758   2.023   2.056  0.00  0.00    +0.142 HD
ENDBRANCH   1   2
BRANCH   1   4
ATOM      4  C   LEU A   1      11.762   4.903   2.870  0.00  0.00    +0.224 C 
ATOM      5  O   LEU A   1      11.013   5.725   3.406  0.00  0.00    -0.287 OA
ENDBRANCH   1   4
BRANCH   1   6
ATOM      6  CB  LEU A   1      13.237   3.403   4.169  0.00  0.00    +0.025 C 
BRANCH   6   7
ATOM      7  CG  LEU A   1      13.400   4.451   5.278  0.00  0.00    +0.002 C 
ATOM      8  CD2 LEU A   1      12.448   4.132   6.431  0.00  0.00    +0.000 C 
ATOM      9  CD1 LEU A   1      14.825   4.466   5.769  0.00  0.00    +0.000 C 
ENDBRANCH   6   7
ENDBRANCH   1   6
TORSDOF 4
REMARK  Name = ../refined-set-2016/3b65/3b65_pocket.pdb
REMARK  272 active torsions:
REMARK  status: ('A' for Active; 'I' for Inactive)
REMARK    1  A    between atoms: _1  and  _3
REMARK    2  A    between atoms: _3  and  _4
REMARK    3  A    between atoms: _3  and  _6
REMARK    4  A    between atoms: _9  and  _11
REMARK    5  A    between atoms: _11  and  _12
REMARK    6  A    between atoms: _15  and  _17
REMARK    7  A    between atoms: _17  and  _18
REMARK    8  A    between atoms: _17  and  _20
REMARK    9  A    between atoms: _20  and  _21
REMARK   10  A    between atoms: _27  and  _29
REMARK   11  A    between atoms: _29  and  _30
REMARK   12  A    between atoms: _29  and  _32
REMARK   13  A    between atoms: _32  and  _33
REMARK   14  A    between atoms: _36  and  _38
REMARK   15  A    between atoms: _38  and  _39
REMARK   16  A    between atoms: _38  and  _41
REMARK   17  A    between atoms: _41  and  _42
REMARK   18  A    between atoms: _45  and  _47
REMARK   19  A    between atoms: _47  and  _48
REMARK   20  A    between atoms: _47  and  _50
REMARK   21  A    between atoms: _50  and  _51
REMARK   22  A    between atoms: _53  and  _55
REMARK   23  A    between atoms: _55  and  _56
REMARK   24  A    between atoms: _55  and  _58
REMARK   25  A    between atoms: _58  and  _59
REMARK   26  A    between atoms: _61  and  _63
REMARK   27  A    between atoms: _63  and  _64
REMARK   28  A    between atoms: _63  and  _66
REMARK   29  A    between atoms: _66  and  _67
REMARK   30  A    between atoms: _70  and  _72
REMARK   31  A    between atoms: _72  and  _73
REMARK   32  A    between atoms: _72  and  _75
REMARK   33  A    between atoms: _75  and  _76
REMARK   34  A    between atoms: _81  and  _83
REMARK   35  A    between atoms: _83  and  _84
REMARK   36  A    between atoms: _83  and  _86
REMARK   37  A    between atoms: _86  and  _87
REMARK   38  A    between atoms: _87  and  _88
REMARK   39  A    between atoms: _91  and  _93
REMARK   40  A    between atoms: _93  and  _94
REMARK   41  A    between atoms: _93  and  _96
REMARK   42  A    between atoms: _96  and  _97
REMARK   43  A    between atoms: _100  and  _102
REMARK   44  A    between atoms: _102  and  _103
REMARK   45  A    between atoms: _105  and  _107
REMARK   46  A    between atoms: _107  and  _108
REMARK   47  A    between atoms: _107  and  _110
REMARK   48  A    between atoms: _110  and  _111
REMARK   49  A    between atoms: _111  and  _112
REMARK   50  A    between atoms: _115  and  _117
REMARK   51  A    between atoms: _117  and  _118
REMARK   52  A    between atoms: _117  and  _120
REMARK   53  A    between atoms: _120  and  _121
REMARK   54  A    between atoms: _121  and  _122
REMARK   55  A    between atoms: _122  and  _123
REMARK   56  A    between atoms: _132  and  _134
REMARK   57  A    between atoms: _134  and  _135
REMARK   58  A    between atoms: _134  and  _137
REMARK   59  A    between atoms: _137  and  _138
REMARK   60  A    between atoms: _138  and  _139
REMARK   61  A    between atoms: _144  and  _146
REMARK   62  A    between atoms: _146  and  _147
REMARK   63  A    between atoms: _146  and  _149
REMARK   64  A    between atoms: _149  and  _150
REMARK   65  A    between atoms: _153  and  _155
REMARK   66  A    between atoms: _155  and  _156
REMARK   67  A    between atoms: _155  and  _158
REMARK   68  A    between atoms: _158  and  _159
REMARK   69  A    between atoms: _162  and  _164
REMARK   70  A    between atoms: _164  and  _165
REMARK   71  A    between atoms: _164  and  _167
REMARK   72  A    between atoms: _167  and  _168
REMARK   73  A    between atoms: _168  and  _169
REMARK   74  A    between atoms: _174  and  _176
REMARK   75  A    between atoms: _176  and  _177
REMARK   76  A    between atoms: _176  and  _179
REMARK   77  A    between atoms: _179  and  _180
REMARK   78  A    between atoms: _185  and  _186
REMARK   79  A    between atoms: _188  and  _190
REMARK   80  A    between atoms: _190  and  _191
REMARK   81  A    between atoms: _190  and  _193
REMARK   82  A    between atoms: _193  and  _194
REMARK   83  A    between atoms: _196  and  _198
REMARK   84  A    between atoms: _198  and  _199
REMARK   85  A    between atoms: _198  and  _201
REMARK   86  A    between atoms: _201  and  _202
REMARK   87  A    between atoms: _212  and  _214
REMARK   88  A    between atoms: _214  and  _215
REMARK   89  A    between atoms: _214  and  _217
REMARK   90  A    between atoms: _217  and  _218
REMARK   91  A    between atoms: _218  and  _219
REMARK   92  A    between atoms: _221  and  _223
REMARK   93  A    between atoms: _223  and  _224
REMARK   94  A    between atoms: _226  and  _228
REMARK   95  A    between atoms: _228  and  _229
REMARK   96  A    between atoms: _228  and  _231
REMARK   97  A    between atoms: _231  and  _232
REMARK   98  A    between atoms: _235  and  _237
REMARK   99  A    between atoms: _237  and  _238
REMARK  100  A    between atoms: _237  and  _240
REMARK  101  A    between atoms: _240  and  _241
REMARK  102  A    between atoms: _241  and  _242
REMARK  103  A    between atoms: _244  and  _246
REMARK  104  A    between atoms: _246  and  _247
REMARK  105  A    between atoms: _246  and  _249
REMARK  106  A    between atoms: _252  and  _254
REMARK  107  A    between atoms: _254  and  _255
REMARK  108  A    between atoms: _254  and  _257
REMARK  109  A    between atoms: _257  and  _258
REMARK  110  A    between atoms: _264  and  _266
REMARK  111  A    between atoms: _266  and  _267
REMARK  112  A    between atoms: _270  and  _272
REMARK  113  A    between atoms: _272  and  _273
REMARK  114  A    between atoms: _272  and  _275
REMARK  115  A    between atoms: _275  and  _276
REMARK  116  A    between atoms: _276  and  _277
REMARK  117  A    between atoms: _279  and  _281
REMARK  118  A    between atoms: _281  and  _282
REMARK  119  A    between atoms: _284  and  _286
REMARK  120  A    between atoms: _286  and  _287
REMARK  121  A    between atoms: _286  and  _289
REMARK  122  A    between atoms: _289  and  _290
REMARK  123  A    between atoms: _290  and  _291
REMARK  124  A    between atoms: _291  and  _292
REMARK  125  A    between atoms: _301  and  _303
REMARK  126  A    between atoms: _303  and  _304
REMARK  127  A    between atoms: _303  and  _306
REMARK  128  A    between atoms: _306  and  _307
REMARK  129  A    between atoms: _309  and  _311
REMARK  130  A    between atoms: _311  and  _312
REMARK  131  A    between atoms: _311  and  _314
REMARK  132  A    between atoms: _314  and  _315
REMARK  133  A    between atoms: _318  and  _320
REMARK  134  A    between atoms: _320  and  _321
REMARK  135  A    between atoms: _320  and  _323
REMARK  136  A    between atoms: _323  and  _324
REMARK  137  A    between atoms: _329  and  _330
REMARK  138  A    between atoms: _332  and  _334
REMARK  139  A    between atoms: _334  and  _335
REMARK  140  A    between atoms: _334  and  _337
REMARK  141  A    between atoms: _337  and  _338
REMARK  142  A    between atoms: _344  and  _346
REMARK  143  A    between atoms: _346  and  _347
REMARK  144  A    between atoms: _350  and  _352
REMARK  145  A    between atoms: _352  and  _353
REMARK  146  A    between atoms: _352  and  _355
REMARK  147  A    between atoms: _355  and  _356
REMARK  148  A    between atoms: _359  and  _361
REMARK  149  A    between atoms: _361  and  _362
REMARK  150  A    between atoms: _361  and  _364
REMARK  151  A    between atoms: _364  and  _365
REMARK  152  A    between atoms: _371  and  _373
REMARK  153  A    between atoms: _373  and  _374
REMARK  154  A    between atoms: _373  and  _376
REMARK  155  A    between atoms: _376  and  _377
REMARK  156  A    between atoms: _379  and  _381
REMARK  157  A    between atoms: _381  and  _382
REMARK  158  A    between atoms: _381  and  _384
REMARK  159  A    between atoms: _384  and  _385
REMARK  160  A    between atoms: _385  and  _386
REMARK  161  A    between atoms: _388  and  _390
REMARK  162  A    between atoms: _390  and  _391
REMARK  163  A    between atoms: _390  and  _393
REMARK  164  A    between atoms: _393  and  _394
REMARK  165  A    between atoms: _394  and  _395
REMARK  166  A    between atoms: _400  and  _402
REMARK  167  A    between atoms: _402  and  _403
REMARK  168  A    between atoms: _402  and  _405
REMARK  169  A    between atoms: _407  and  _409
REMARK  170  A    between atoms: _409  and  _410
REMARK  171  A    between atoms: _409  and  _412
REMARK  172  A    between atoms: _412  and  _413
REMARK  173  A    between atoms: _413  and  _414
REMARK  174  A    between atoms: _416  and  _418
REMARK  175  A    between atoms: _418  and  _419
REMARK  176  A    between atoms: _418  and  _421
REMARK  177  A    between atoms: _421  and  _422
REMARK  178  A    between atoms: _425  and  _427
REMARK  179  A    between atoms: _427  and  _428
REMARK  180  A    between atoms: _427  and  _430
REMARK  181  A    between atoms: _430  and  _431
REMARK  182  A    between atoms: _434  and  _436
REMARK  183  A    between atoms: _436  and  _437
REMARK  184  A    between atoms: _436  and  _439
REMARK  185  A    between atoms: _439  and  _440
REMARK  186  A    between atoms: _443  and  _445
REMARK  187  A    between atoms: _445  and  _446
REMARK  188  A    between atoms: _449  and  _451
REMARK  189  A    between atoms: _451  and  _452
REMARK  190  A    between atoms: _451  and  _454
REMARK  191  A    between atoms: _454  and  _455
REMARK  192  A    between atoms: _458  and  _460
REMARK  193  A    between atoms: _460  and  _461
REMARK  194  A    between atoms: _460  and  _463
REMARK  195  A    between atoms: _463  and  _464
REMARK  196  A    between atoms: _469  and  _471
REMARK  197  A    between atoms: _471  and  _472
REMARK  198  A    between atoms: _471  and  _474
REMARK  199  A    between atoms: _474  and  _475
REMARK  200  A    between atoms: _475  and  _476
REMARK  201  A    between atoms: _481  and  _483
REMARK  202  A    between atoms: _483  and  _484
REMARK  203  A    between atoms: _483  and  _486
REMARK  204  A    between atoms: _486  and  _487
REMARK  205  A    between atoms: _493  and  _495
REMARK  206  A    between atoms: _495  and  _496
REMARK  207  A    between atoms: _495  and  _498
REMARK  208  A    between atoms: _498  and  _499
REMARK  209  A    between atoms: _502  and  _504
REMARK  210  A    between atoms: _504  and  _505
REMARK  211  A    between atoms: _504  and  _507
REMARK  212  A    between atoms: _507  and  _508
REMARK  213  A    between atoms: _514  and  _516
REMARK  214  A    between atoms: _516  and  _517
REMARK  215  A    between atoms: _516  and  _519
REMARK  216  A    between atoms: _519  and  _520
REMARK  217  A    between atoms: _523  and  _525
REMARK  218  A    between atoms: _525  and  _526
REMARK  219  A    between atoms: _525  and  _528
REMARK  220  A    between atoms: _528  and  _529
REMARK  221  A    between atoms: _532  and  _534
REMARK  222  A    between atoms: _534  and  _535
REMARK  223  A    between atoms: _534  and  _537
REMARK  224  A    between atoms: _540  and  _542
REMARK  225  A    between atoms: _542  and  _543
REMARK  226  A    between atoms: _542  and  _545
REMARK  227  A    between atoms: _545  and  _546
REMARK  228  A    between atoms: _549  and  _551
REMARK  229  A    between atoms: _551  and  _552
REMARK  230  A    between atoms: _551  and  _554
REMARK  231  A    between atoms: _554  and  _555
REMARK  232  A    between atoms: _562  and  _563
REMARK  233  A    between atoms: _568  and  _570
REMARK  234  A    between atoms: _570  and  _571
REMARK  235  A    between atoms: _570  and  _573
REMARK  236  A    between atoms: _573  and  _574
REMARK  237  A    between atoms: _574  and  _575
REMARK  238  A    between atoms: _577  and  _579
REMARK  239  A    between atoms: _579  and  _580
REMARK  240  A    between atoms: _579  and  _582
REMARK  241  A    between atoms: _582  and  _583
REMARK  242  A    between atoms: _583  and  _584
REMARK  243  A    between atoms: _586  and  _588
REMARK  244  A    between atoms: _588  and  _589
REMARK  245  A    between atoms: _592  and  _594
REMARK  246  A    between atoms: _594  and  _595
REMARK  247  A    between atoms: _594  and  _597
REMARK  248  A    between atoms: _597  and  _598
REMARK  249  A    between atoms: _601  and  _603
REMARK  250  A    between atoms: _603  and  _604
REMARK  251  A    between atoms: _603  and  _606
REMARK  252  A    between atoms: _606  and  _607
REMARK  253  A    between atoms: _610  and  _612
REMARK  254  A    between atoms: _612  and  _613
REMARK  255  A    between atoms: _612  and  _615
REMARK  256  A    between atoms: _615  and  _616
REMARK  257  A    between atoms: _618  and  _620
REMARK  258  A    between atoms: _620  and  _621
REMARK  259  A    between atoms: _620  and  _623
REMARK  260  A    between atoms: _626  and  _628
REMARK  261  A    between atoms: _628  and  _629
REMARK  262  A    between atoms: _628  and  _631
REMARK  263  A    between atoms: _631  and  _632
REMARK  264  A    between atoms: _632  and  _633
REMARK  265  A    between atoms: _638  and  _640
REMARK  266  A    between atoms: _640  and  _641
REMARK  267  A    between atoms: _640  and  _643
REMARK  268  A    between atoms: _647  and  _648
REMARK  269  A    between atoms: _653  and  _655
REMARK  270  A    between atoms: _655  and  _656
REMARK  271  A    between atoms: _655  and  _658
REMARK  272  A    between atoms: _658  and  _659
REMARK                            x       y       z     vdW  Elec       q    Type
REMARK                         _______ _______ _______ _____ _____    ______ ____
ROOT
ATOM      1  CA  ILE A   1      20.564   0.475  20.517  0.00  0.00    +0.133 C 
ENDROOT
BRANCH   1   2
ATOM      2  N   ILE A   1      19.773   1.701  20.588  0.00  0.00    -0.239 NA
ATOM      3  H   ILE A   1      20.160   2.534  21.076  0.00  0.00    +0.142 HD
ENDBRANCH   1   2
BRANCH   1   4
ATOM      4  C   ILE A   1      21.563   0.428  21.673  0.00  0.00    +0.224 C 
ATOM      5  O   ILE A   1      22.477   1.250  21.749  0.00  0.00    -0.287 OA
ENDBRANCH   1   4
BRANCH   1   6
ATOM      6  CB  ILE A   1      21.288   0.369  19.158  0.00  0.00    +0.023 C 
ATOM      7  CG2 ILE A   1      22.097   1.622  18.900  0.00  0.00    +0.002 C 
BRANCH   6   8
ATOM      8  CG1 ILE A   1      22.158  -0.886  19.127  0.00  0.00    +0.002 C 
ATOM      9  CD1 ILE A   1      22.784  -1.151  17.770  0.00  0.00    +0.000 C 
ENDBRANCH   6   8
ENDBRANCH   1   6
TORSDOF 4
REMARK  Name = ../refined-set-2016/3b65/3b65_pocket.pdb
REMARK  272 active torsions:
REMARK  status: ('A' for Active; 'I' for Inactive)
REMARK    1  A    between atoms: _1  and  _3
REMARK    2  A    between atoms: _3  and  _4
REMARK    3  A    between atoms: _3  and  _6
REMARK    4  A    between atoms: _9  and  _11
REMARK    5  A    between atoms: _11  and  _12
REMARK    6  A    between atoms: _15  and  _17
REMARK    7  A    between atoms: _17  and  _18
REMARK    8  A    between atoms: _17  and  _20
REMARK    9  A    between atoms: _20  and  _21
REMARK   10  A    between atoms: _27  and  _29
REMARK   11  A    between atoms: _29  and  _30
REMARK   12  A    between atoms: _29  and  _32
REMARK   13  A    between atoms: _32  and  _33
REMARK   14  A    between atoms: _36  and  _38
REMARK   15  A    between atoms: _38  and  _39
REMARK   16  A    between atoms: _38  and  _41
REMARK   17  A    between atoms: _41  and  _42
REMARK   18  A    between atoms: _45  and  _47
REMARK   19  A    between atoms: _47  and  _48
REMARK   20  A    between atoms: _47  and  _50
REMARK   21  A    between atoms: _50  and  _51
REMARK   22  A    between atoms: _53  and  _55
REMARK   23  A    between atoms: _55  and  _56
REMARK   24  A    between atoms: _55  and  _58
REMARK   25  A    between atoms: _58  and  _59
REMARK   26  A    between atoms: _61  and  _63
REMARK   27  A    between atoms: _63  and  _64
REMARK   28  A    between atoms: _63  and  _66
REMARK   29  A    between atoms: _66  and  _67
REMARK   30  A    between atoms: _70  and  _72
REMARK   31  A    between atoms: _72  and  _73
REMARK   32  A    between atoms: _72  and  _75
REMARK   33  A    between atoms: _75  and  _76
REMARK   34  A    between atoms: _81  and  _83
REMARK   35  A    between atoms: _83  and  _84
REMARK   36  A    between atoms: _83  and  _86
REMARK   37  A    between atoms: _86  and  _87
REMARK   38  A    between atoms: _87  and  _88
REMARK   39  A    between atoms: _91  and  _93
REMARK   40  A    between atoms: _93  and  _94
REMARK   41  A    between atoms: _93  and  _96
REMARK   42  A    between atoms: _96  and  _97
REMARK   43  A    between atoms: _100  and  _102
REMARK   44  A    between atoms: _102  and  _103
REMARK   45  A    between atoms: _105  and  _107
REMARK   46  A    between atoms: _107  and  _108
REMARK   47  A    between atoms: _107  and  _110
REMARK   48  A    between atoms: _110  and  _111
REMARK   49  A    between atoms: _111  and  _112
REMARK   50  A    between atoms: _115  and  _117
REMARK   51  A    between atoms: _117  and  _118
REMARK   52  A    between atoms: _117  and  _120
REMARK   53  A    between atoms: _120  and  _121
REMARK   54  A    between atoms: _121  and  _122
REMARK   55  A    between atoms: _122  and  _123
REMARK   56  A    between atoms: _132  and  _134
REMARK   57  A    between atoms: _134  and  _135
REMARK   58  A    between atoms: _134  and  _137
REMARK   59  A    between atoms: _137  and  _138
REMARK   60  A    between atoms: _138  and  _139
REMARK   61  A    between atoms: _144  and  _146
REMARK   62  A    between atoms: _146  and  _147
REMARK   63  A    between atoms: _146  and  _149
REMARK   64  A    between atoms: _149  and  _150
REMARK   65  A    between atoms: _153  and  _155
REMARK   66  A    between atoms: _155  and  _156
REMARK   67  A    between atoms: _155  and  _158
REMARK   68  A    between atoms: _158  and  _159
REMARK   69  A    between atoms: _162  and  _164
REMARK   70  A    between atoms: _164  and  _165
REMARK   71  A    between atoms: _164  and  _167
REMARK   72  A    between atoms: _167  and  _168
REMARK   73  A    between atoms: _168  and  _169
REMARK   74  A    between atoms: _174  and  _176
REMARK   75  A    between atoms: _176  and  _177
REMARK   76  A    between atoms: _176  and  _179
REMARK   77  A    between atoms: _179  and  _180
REMARK   78  A    between atoms: _185  and  _186
REMARK   79  A    between atoms: _188  and  _190
REMARK   80  A    between atoms: _190  and  _191
REMARK   81  A    between atoms: _190  and  _193
REMARK   82  A    between atoms: _193  and  _194
REMARK   83  A    between atoms: _196  and  _198
REMARK   84  A    between atoms: _198  and  _199
REMARK   85  A    between atoms: _198  and  _201
REMARK   86  A    between atoms: _201  and  _202
REMARK   87  A    between atoms: _212  and  _214
REMARK   88  A    between atoms: _214  and  _215
REMARK   89  A    between atoms: _214  and  _217
REMARK   90  A    between atoms: _217  and  _218
REMARK   91  A    between atoms: _218  and  _219
REMARK   92  A    between atoms: _221  and  _223
REMARK   93  A    between atoms: _223  and  _224
REMARK   94  A    between atoms: _226  and  _228
REMARK   95  A    between atoms: _228  and  _229
REMARK   96  A    between atoms: _228  and  _231
REMARK   97  A    between atoms: _231  and  _232
REMARK   98  A    between atoms: _235  and  _237
REMARK   99  A    between atoms: _237  and  _238
REMARK  100  A    between atoms: _237  and  _240
REMARK  101  A    between atoms: _240  and  _241
REMARK  102  A    between atoms: _241  and  _242
REMARK  103  A    between atoms: _244  and  _246
REMARK  104  A    between atoms: _246  and  _247
REMARK  105  A    between atoms: _246  and  _249
REMARK  106  A    between atoms: _252  and  _254
REMARK  107  A    between atoms: _254  and  _255
REMARK  108  A    between atoms: _254  and  _257
REMARK  109  A    between atoms: _257  and  _258
REMARK  110  A    between atoms: _264  and  _266
REMARK  111  A    between atoms: _266  and  _267
REMARK  112  A    between atoms: _270  and  _272
REMARK  113  A    between atoms: _272  and  _273
REMARK  114  A    between atoms: _272  and  _275
REMARK  115  A    between atoms: _275  and  _276
REMARK  116  A    between atoms: _276  and  _277
REMARK  117  A    between atoms: _279  and  _281
REMARK  118  A    between atoms: _281  and  _282
REMARK  119  A    between atoms: _284  and  _286
REMARK  120  A    between atoms: _286  and  _287
REMARK  121  A    between atoms: _286  and  _289
REMARK  122  A    between atoms: _289  and  _290
REMARK  123  A    between atoms: _290  and  _291
REMARK  124  A    between atoms: _291  and  _292
REMARK  125  A    between atoms: _301  and  _303
REMARK  126  A    between atoms: _303  and  _304
REMARK  127  A    between atoms: _303  and  _306
REMARK  128  A    between atoms: _306  and  _307
REMARK  129  A    between atoms: _309  and  _311
REMARK  130  A    between atoms: _311  and  _312
REMARK  131  A    between atoms: _311  and  _314
REMARK  132  A    between atoms: _314  and  _315
REMARK  133  A    between atoms: _318  and  _320
REMARK  134  A    between atoms: _320  and  _321
REMARK  135  A    between atoms: _320  and  _323
REMARK  136  A    between atoms: _323  and  _324
REMARK  137  A    between atoms: _329  and  _330
REMARK  138  A    between atoms: _332  and  _334
REMARK  139  A    between atoms: _334  and  _335
REMARK  140  A    between atoms: _334  and  _337
REMARK  141  A    between atoms: _337  and  _338
REMARK  142  A    between atoms: _344  and  _346
REMARK  143  A    between atoms: _346  and  _347
REMARK  144  A    between atoms: _350  and  _352
REMARK  145  A    between atoms: _352  and  _353
REMARK  146  A    between atoms: _352  and  _355
REMARK  147  A    between atoms: _355  and  _356
REMARK  148  A    between atoms: _359  and  _361
REMARK  149  A    between atoms: _361  and  _362
REMARK  150  A    between atoms: _361  and  _364
REMARK  151  A    between atoms: _364  and  _365
REMARK  152  A    between atoms: _371  and  _373
REMARK  153  A    between atoms: _373  and  _374
REMARK  154  A    between atoms: _373  and  _376
REMARK  155  A    between atoms: _376  and  _377
REMARK  156  A    between atoms: _379  and  _381
REMARK  157  A    between atoms: _381  and  _382
REMARK  158  A    between atoms: _381  and  _384
REMARK  159  A    between atoms: _384  and  _385
REMARK  160  A    between atoms: _385  and  _386
REMARK  161  A    between atoms: _388  and  _390
REMARK  162  A    between atoms: _390  and  _391
REMARK  163  A    between atoms: _390  and  _393
REMARK  164  A    between atoms: _393  and  _394
REMARK  165  A    between atoms: _394  and  _395
REMARK  166  A    between atoms: _400  and  _402
REMARK  167  A    between atoms: _402  and  _403
REMARK  168  A    between atoms: _402  and  _405
REMARK  169  A    between atoms: _407  and  _409
REMARK  170  A    between atoms: _409  and  _410
REMARK  171  A    between atoms: _409  and  _412
REMARK  172  A    between atoms: _412  and  _413
REMARK  173  A    between atoms: _413  and  _414
REMARK  174  A    between atoms: _416  and  _418
REMARK  175  A    between atoms: _418  and  _419
REMARK  176  A    between atoms: _418  and  _421
REMARK  177  A    between atoms: _421  and  _422
REMARK  178  A    between atoms: _425  and  _427
REMARK  179  A    between atoms: _427  and  _428
REMARK  180  A    between atoms: _427  and  _430
REMARK  181  A    between atoms: _430  and  _431
REMARK  182  A    between atoms: _434  and  _436
REMARK  183  A    between atoms: _436  and  _437
REMARK  184  A    between atoms: _436  and  _439
REMARK  185  A    between atoms: _439  and  _440
REMARK  186  A    between atoms: _443  and  _445
REMARK  187  A    between atoms: _445  and  _446
REMARK  188  A    between atoms: _449  and  _451
REMARK  189  A    between atoms: _451  and  _452
REMARK  190  A    between atoms: _451  and  _454
REMARK  191  A    between atoms: _454  and  _455
REMARK  192  A    between atoms: _458  and  _460
REMARK  193  A    between atoms: _460  and  _461
REMARK  194  A    between atoms: _460  and  _463
REMARK  195  A    between atoms: _463  and  _464
REMARK  196  A    between atoms: _469  and  _471
REMARK  197  A    between atoms: _471  and  _472
REMARK  198  A    between atoms: _471  and  _474
REMARK  199  A    between atoms: _474  and  _475
REMARK  200  A    between atoms: _475  and  _476
REMARK  201  A    between atoms: _481  and  _483
REMARK  202  A    between atoms: _483  and  _484
REMARK  203  A    between atoms: _483  and  _486
REMARK  204  A    between atoms: _486  and  _487
REMARK  205  A    between atoms: _493  and  _495
REMARK  206  A    between atoms: _495  and  _496
REMARK  207  A    between atoms: _495  and  _498
REMARK  208  A    between atoms: _498  and  _499
REMARK  209  A    between atoms: _502  and  _504
REMARK  210  A    between atoms: _504  and  _505
REMARK  211  A    between atoms: _504  and  _507
REMARK  212  A    between atoms: _507  and  _508
REMARK  213  A    between atoms: _514  and  _516
REMARK  214  A    between atoms: _516  and  _517
REMARK  215  A    between atoms: _516  and  _519
REMARK  216  A    between atoms: _519  and  _520
REMARK  217  A    between atoms: _523  and  _525
REMARK  218  A    between atoms: _525  and  _526
REMARK  219  A    between atoms: _525  and  _528
REMARK  220  A    between atoms: _528  and  _529
REMARK  221  A    between atoms: _532  and  _534
REMARK  222  A    between atoms: _534  and  _535
REMARK  223  A    between atoms: _534  and  _537
REMARK  224  A    between atoms: _540  and  _542
REMARK  225  A    between atoms: _542  and  _543
REMARK  226  A    between atoms: _542  and  _545
REMARK  227  A    between atoms: _545  and  _546
REMARK  228  A    between atoms: _549  and  _551
REMARK  229  A    between atoms: _551  and  _552
REMARK  230  A    between atoms: _551  and  _554
REMARK  231  A    between atoms: _554  and  _555
REMARK  232  A    between atoms: _562  and  _563
REMARK  233  A    between atoms: _568  and  _570
REMARK  234  A    between atoms: _570  and  _571
REMARK  235  A    between atoms: _570  and  _573
REMARK  236  A    between atoms: _573  and  _574
REMARK  237  A    between atoms: _574  and  _575
REMARK  238  A    between atoms: _577  and  _579
REMARK  239  A    between atoms: _579  and  _580
REMARK  240  A    between atoms: _579  and  _582
REMARK  241  A    between atoms: _582  and  _583
REMARK  242  A    between atoms: _583  and  _584
REMARK  243  A    between atoms: _586  and  _588
REMARK  244  A    between atoms: _588  and  _589
REMARK  245  A    between atoms: _592  and  _594
REMARK  246  A    between atoms: _594  and  _595
REMARK  247  A    between atoms: _594  and  _597
REMARK  248  A    between atoms: _597  and  _598
REMARK  249  A    between atoms: _601  and  _603
REMARK  250  A    between atoms: _603  and  _604
REMARK  251  A    between atoms: _603  and  _606
REMARK  252  A    between atoms: _606  and  _607
REMARK  253  A    between atoms: _610  and  _612
REMARK  254  A    between atoms: _612  and  _613
REMARK  255  A    between atoms: _612  and  _615
REMARK  256  A    between atoms: _615  and  _616
REMARK  257  A    between atoms: _618  and  _620
REMARK  258  A    between atoms: _620  and  _621
REMARK  259  A    between atoms: _620  and  _623
REMARK  260  A    between atoms: _626  and  _628
REMARK  261  A    between atoms: _628  and  _629
REMARK  262  A    between atoms: _628  and  _631
REMARK  263  A    between atoms: _631  and  _632
REMARK  264  A    between atoms: _632  and  _633
REMARK  265  A    between atoms: _638  and  _640
REMARK  266  A    between atoms: _640  and  _641
REMARK  267  A    between atoms: _640  and  _643
REMARK  268  A    between atoms: _647  and  _648
REMARK  269  A    between atoms: _653  and  _655
REMARK  270  A    between atoms: _655  and  _656
REMARK  271  A    between atoms: _655  and  _658
REMARK  272  A    between atoms: _658  and  _659
REMARK                            x       y       z     vdW  Elec       q    Type
REMARK                         _______ _______ _______ _____ _____    ______ ____
ROOT
ATOM      1  C   ILE A   1      19.432  -2.505   7.726  0.00  0.00    +0.238 C 
ATOM      2  N   ALA A   2      19.622  -1.853   8.869  0.00  0.00    -0.298 N 
ATOM      3  H   ALA A   2      18.803  -1.502   9.405  0.00  0.00    +0.150 HD
ATOM      4  O   ILE A   1      20.368  -2.927   7.042  0.00  0.00    -0.274 OA
ENDROOT
BRANCH   2   5
ATOM      5  CA  ALA A   2      20.970  -1.626   9.378  0.00  0.00    +0.137 C 
ATOM      6  CB  ALA A   2      20.923  -0.797  10.667  0.00  0.00    +0.030 C 
BRANCH   5   7
ATOM      7  C   ALA A   2      21.660  -2.970   9.636  0.00  0.00    +0.227 C 
ATOM      8  O   ALA A   2      22.865  -3.113   9.411  0.00  0.00    -0.286 OA
ENDBRANCH   5   7
ENDBRANCH   2   5
BRANCH   1   9
ATOM      9  CA  ILE A   1      17.981  -2.715   7.283  0.00  0.00    +0.145 C 
BRANCH   9  10
ATOM     10  N   ILE A   1      17.186  -3.151   8.424  0.00  0.00    -0.238 NA
ATOM     11  H   ILE A   1      16.488  -2.495   8.830  0.00  0.00    +0.142 HD
ENDBRANCH   9  10
BRANCH   9  12
ATOM     12  CB  ILE A   1      17.429  -1.392   6.686  0.00  0.00    +0.025 C 
ATOM     13  CG2 ILE A   1      18.208  -1.014   5.424  0.00  0.00    +0.002 C 
BRANCH  12  14
ATOM     14  CG1 ILE A   1      15.940  -1.549   6.355  0.00  0.00    +0.002 C 
ATOM     15  CD1 ILE A   1      15.294  -0.288   5.792  0.00  0.00    +0.000 C 
ENDBRANCH  12  14
ENDBRANCH   9  12
ENDBRANCH   1   9
TORSDOF 6
REMARK  Name = ../refined-set-2016/3b65/3b65_pocket.pdb
REMARK  272 active torsions:
REMARK  status: ('A' for Active; 'I' for Inactive)
REMARK    1  A    between atoms: _1  and  _3
REMARK    2  A    between atoms: _3  and  _4
REMARK    3  A    between atoms: _3  and  _6
REMARK    4  A    between atoms: _9  and  _11
REMARK    5  A    between atoms: _11  and  _12
REMARK    6  A    between atoms: _15  and  _17
REMARK    7  A    between atoms: _17  and  _18
REMARK    8  A    between atoms: _17  and  _20
REMARK    9  A    between atoms: _20  and  _21
REMARK   10  A    between atoms: _27  and  _29
REMARK   11  A    between atoms: _29  and  _30
REMARK   12  A    between atoms: _29  and  _32
REMARK   13  A    between atoms: _32  and  _33
REMARK   14  A    between atoms: _36  and  _38
REMARK   15  A    between atoms: _38  and  _39
REMARK   16  A    between atoms: _38  and  _41
REMARK   17  A    between atoms: _41  and  _42
REMARK   18  A    between atoms: _45  and  _47
REMARK   19  A    between atoms: _47  and  _48
REMARK   20  A    between atoms: _47  and  _50
REMARK   21  A    between atoms: _50  and  _51
REMARK   22  A    between atoms: _53  and  _55
REMARK   23  A    between atoms: _55  and  _56
REMARK   24  A    between atoms: _55  and  _58
REMARK   25  A    between atoms: _58  and  _59
REMARK   26  A    between atoms: _61  and  _63
REMARK   27  A    between atoms: _63  and  _64
REMARK   28  A    between atoms: _63  and  _66
REMARK   29  A    between atoms: _66  and  _67
REMARK   30  A    between atoms: _70  and  _72
REMARK   31  A    between atoms: _72  and  _73
REMARK   32  A    between atoms: _72  and  _75
REMARK   33  A    between atoms: _75  and  _76
REMARK   34  A    between atoms: _81  and  _83
REMARK   35  A    between atoms: _83  and  _84
REMARK   36  A    between atoms: _83  and  _86
REMARK   37  A    between atoms: _86  and  _87
REMARK   38  A    between atoms: _87  and  _88
REMARK   39  A    between atoms: _91  and  _93
REMARK   40  A    between atoms: _93  and  _94
REMARK   41  A    between atoms: _93  and  _96
REMARK   42  A    between atoms: _96  and  _97
REMARK   43  A    between atoms: _100  and  _102
REMARK   44  A    between atoms: _102  and  _103
REMARK   45  A    between atoms: _105  and  _107
REMARK   46  A    between atoms: _107  and  _108
REMARK   47  A    between atoms: _107  and  _110
REMARK   48  A    between atoms: _110  and  _111
REMARK   49  A    between atoms: _111  and  _112
REMARK   50  A    between atoms: _115  and  _117
REMARK   51  A    between atoms: _117  and  _118
REMARK   52  A    between atoms: _117  and  _120
REMARK   53  A    between atoms: _120  and  _121
REMARK   54  A    between atoms: _121  and  _122
REMARK   55  A    between atoms: _122  and  _123
REMARK   56  A    between atoms: _132  and  _134
REMARK   57  A    between atoms: _134  and  _135
REMARK   58  A    between atoms: _134  and  _137
REMARK   59  A    between atoms: _137  and  _138
REMARK   60  A    between atoms: _138  and  _139
REMARK   61  A    between atoms: _144  and  _146
REMARK   62  A    between atoms: _146  and  _147
REMARK   63  A    between atoms: _146  and  _149
REMARK   64  A    between atoms: _149  and  _150
REMARK   65  A    between atoms: _153  and  _155
REMARK   66  A    between atoms: _155  and  _156
REMARK   67  A    between atoms: _155  and  _158
REMARK   68  A    between atoms: _158  and  _159
REMARK   69  A    between atoms: _162  and  _164
REMARK   70  A    between atoms: _164  and  _165
REMARK   71  A    between atoms: _164  and  _167
REMARK   72  A    between atoms: _167  and  _168
REMARK   73  A    between atoms: _168  and  _169
REMARK   74  A    between atoms: _174  and  _176
REMARK   75  A    between atoms: _176  and  _177
REMARK   76  A    between atoms: _176  and  _179
REMARK   77  A    between atoms: _179  and  _180
REMARK   78  A    between atoms: _185  and  _186
REMARK   79  A    between atoms: _188  and  _190
REMARK   80  A    between atoms: _190  and  _191
REMARK   81  A    between atoms: _190  and  _193
REMARK   82  A    between atoms: _193  and  _194
REMARK   83  A    between atoms: _196  and  _198
REMARK   84  A    between atoms: _198  and  _199
REMARK   85  A    between atoms: _198  and  _201
REMARK   86  A    between atoms: _201  and  _202
REMARK   87  A    between atoms: _212  and  _214
REMARK   88  A    between atoms: _214  and  _215
REMARK   89  A    between atoms: _214  and  _217
REMARK   90  A    between atoms: _217  and  _218
REMARK   91  A    between atoms: _218  and  _219
REMARK   92  A    between atoms: _221  and  _223
REMARK   93  A    between atoms: _223  and  _224
REMARK   94  A    between atoms: _226  and  _228
REMARK   95  A    between atoms: _228  and  _229
REMARK   96  A    between atoms: _228  and  _231
REMARK   97  A    between atoms: _231  and  _232
REMARK   98  A    between atoms: _235  and  _237
REMARK   99  A    between atoms: _237  and  _238
REMARK  100  A    between atoms: _237  and  _240
REMARK  101  A    between atoms: _240  and  _241
REMARK  102  A    between atoms: _241  and  _242
REMARK  103  A    between atoms: _244  and  _246
REMARK  104  A    between atoms: _246  and  _247
REMARK  105  A    between atoms: _246  and  _249
REMARK  106  A    between atoms: _252  and  _254
REMARK  107  A    between atoms: _254  and  _255
REMARK  108  A    between atoms: _254  and  _257
REMARK  109  A    between atoms: _257  and  _258
REMARK  110  A    between atoms: _264  and  _266
REMARK  111  A    between atoms: _266  and  _267
REMARK  112  A    between atoms: _270  and  _272
REMARK  113  A    between atoms: _272  and  _273
REMARK  114  A    between atoms: _272  and  _275
REMARK  115  A    between atoms: _275  and  _276
REMARK  116  A    between atoms: _276  and  _277
REMARK  117  A    between atoms: _279  and  _281
REMARK  118  A    between atoms: _281  and  _282
REMARK  119  A    between atoms: _284  and  _286
REMARK  120  A    between atoms: _286  and  _287
REMARK  121  A    between atoms: _286  and  _289
REMARK  122  A    between atoms: _289  and  _290
REMARK  123  A    between atoms: _290  and  _291
REMARK  124  A    between atoms: _291  and  _292
REMARK  125  A    between atoms: _301  and  _303
REMARK  126  A    between atoms: _303  and  _304
REMARK  127  A    between atoms: _303  and  _306
REMARK  128  A    between atoms: _306  and  _307
REMARK  129  A    between atoms: _309  and  _311
REMARK  130  A    between atoms: _311  and  _312
REMARK  131  A    between atoms: _311  and  _314
REMARK  132  A    between atoms: _314  and  _315
REMARK  133  A    between atoms: _318  and  _320
REMARK  134  A    between atoms: _320  and  _321
REMARK  135  A    between atoms: _320  and  _323
REMARK  136  A    between atoms: _323  and  _324
REMARK  137  A    between atoms: _329  and  _330
REMARK  138  A    between atoms: _332  and  _334
REMARK  139  A    between atoms: _334  and  _335
REMARK  140  A    between atoms: _334  and  _337
REMARK  141  A    between atoms: _337  and  _338
REMARK  142  A    between atoms: _344  and  _346
REMARK  143  A    between atoms: _346  and  _347
REMARK  144  A    between atoms: _350  and  _352
REMARK  145  A    between atoms: _352  and  _353
REMARK  146  A    between atoms: _352  and  _355
REMARK  147  A    between atoms: _355  and  _356
REMARK  148  A    between atoms: _359  and  _361
REMARK  149  A    between atoms: _361  and  _362
REMARK  150  A    between atoms: _361  and  _364
REMARK  151  A    between atoms: _364  and  _365
REMARK  152  A    between atoms: _371  and  _373
REMARK  153  A    between atoms: _373  and  _374
REMARK  154  A    between atoms: _373  and  _376
REMARK  155  A    between atoms: _376  and  _377
REMARK  156  A    between atoms: _379  and  _381
REMARK  157  A    between atoms: _381  and  _382
REMARK  158  A    between atoms: _381  and  _384
REMARK  159  A    between atoms: _384  and  _385
REMARK  160  A    between atoms: _385  and  _386
REMARK  161  A    between atoms: _388  and  _390
REMARK  162  A    between atoms: _390  and  _391
REMARK  163  A    between atoms: _390  and  _393
REMARK  164  A    between atoms: _393  and  _394
REMARK  165  A    between atoms: _394  and  _395
REMARK  166  A    between atoms: _400  and  _402
REMARK  167  A    between atoms: _402  and  _403
REMARK  168  A    between atoms: _402  and  _405
REMARK  169  A    between atoms: _407  and  _409
REMARK  170  A    between atoms: _409  and  _410
REMARK  171  A    between atoms: _409  and  _412
REMARK  172  A    between atoms: _412  and  _413
REMARK  173  A    between atoms: _413  and  _414
REMARK  174  A    between atoms: _416  and  _418
REMARK  175  A    between atoms: _418  and  _419
REMARK  176  A    between atoms: _418  and  _421
REMARK  177  A    between atoms: _421  and  _422
REMARK  178  A    between atoms: _425  and  _427
REMARK  179  A    between atoms: _427  and  _428
REMARK  180  A    between atoms: _427  and  _430
REMARK  181  A    between atoms: _430  and  _431
REMARK  182  A    between atoms: _434  and  _436
REMARK  183  A    between atoms: _436  and  _437
REMARK  184  A    between atoms: _436  and  _439
REMARK  185  A    between atoms: _439  and  _440
REMARK  186  A    between atoms: _443  and  _445
REMARK  187  A    between atoms: _445  and  _446
REMARK  188  A    between atoms: _449  and  _451
REMARK  189  A    between atoms: _451  and  _452
REMARK  190  A    between atoms: _451  and  _454
REMARK  191  A    between atoms: _454  and  _455
REMARK  192  A    between atoms: _458  and  _460
REMARK  193  A    between atoms: _460  and  _461
REMARK  194  A    between atoms: _460  and  _463
REMARK  195  A    between atoms: _463  and  _464
REMARK  196  A    between atoms: _469  and  _471
REMARK  197  A    between atoms: _471  and  _472
REMARK  198  A    between atoms: _471  and  _474
REMARK  199  A    between atoms: _474  and  _475
REMARK  200  A    between atoms: _475  and  _476
REMARK  201  A    between atoms: _481  and  _483
REMARK  202  A    between atoms: _483  and  _484
REMARK  203  A    between atoms: _483  and  _486
REMARK  204  A    between atoms: _486  and  _487
REMARK  205  A    between atoms: _493  and  _495
REMARK  206  A    between atoms: _495  and  _496
REMARK  207  A    between atoms: _495  and  _498
REMARK  208  A    between atoms: _498  and  _499
REMARK  209  A    between atoms: _502  and  _504
REMARK  210  A    between atoms: _504  and  _505
REMARK  211  A    between atoms: _504  and  _507
REMARK  212  A    between atoms: _507  and  _508
REMARK  213  A    between atoms: _514  and  _516
REMARK  214  A    between atoms: _516  and  _517
REMARK  215  A    between atoms: _516  and  _519
REMARK  216  A    between atoms: _519  and  _520
REMARK  217  A    between atoms: _523  and  _525
REMARK  218  A    between atoms: _525  and  _526
REMARK  219  A    between atoms: _525  and  _528
REMARK  220  A    between atoms: _528  and  _529
REMARK  221  A    between atoms: _532  and  _534
REMARK  222  A    between atoms: _534  and  _535
REMARK  223  A    between atoms: _534  and  _537
REMARK  224  A    between atoms: _540  and  _542
REMARK  225  A    between atoms: _542  and  _543
REMARK  226  A    between atoms: _542  and  _545
REMARK  227  A    between atoms: _545  and  _546
REMARK  228  A    between atoms: _549  and  _551
REMARK  229  A    between atoms: _551  and  _552
REMARK  230  A    between atoms: _551  and  _554
REMARK  231  A    between atoms: _554  and  _555
REMARK  232  A    between atoms: _562  and  _563
REMARK  233  A    between atoms: _568  and  _570
REMARK  234  A    between atoms: _570  and  _571
REMARK  235  A    between atoms: _570  and  _573
REMARK  236  A    between atoms: _573  and  _574
REMARK  237  A    between atoms: _574  and  _575
REMARK  238  A    between atoms: _577  and  _579
REMARK  239  A    between atoms: _579  and  _580
REMARK  240  A    between atoms: _579  and  _582
REMARK  241  A    between atoms: _582  and  _583
REMARK  242  A    between atoms: _583  and  _584
REMARK  243  A    between atoms: _586  and  _588
REMARK  244  A    between atoms: _588  and  _589
REMARK  245  A    between atoms: _592  and  _594
REMARK  246  A    between atoms: _594  and  _595
REMARK  247  A    between atoms: _594  and  _597
REMARK  248  A    between atoms: _597  and  _598
REMARK  249  A    between atoms: _601  and  _603
REMARK  250  A    between atoms: _603  and  _604
REMARK  251  A    between atoms: _603  and  _606
REMARK  252  A    between atoms: _606  and  _607
REMARK  253  A    between atoms: _610  and  _612
REMARK  254  A    between atoms: _612  and  _613
REMARK  255  A    between atoms: _612  and  _615
REMARK  256  A    between atoms: _615  and  _616
REMARK  257  A    between atoms: _618  and  _620
REMARK  258  A    between atoms: _620  and  _621
REMARK  259  A    between atoms: _620  and  _623
REMARK  260  A    between atoms: _626  and  _628
REMARK  261  A    between atoms: _628  and  _629
REMARK  262  A    between atoms: _628  and  _631
REMARK  263  A    between atoms: _631  and  _632
REMARK  264  A    between atoms: _632  and  _633
REMARK  265  A    between atoms: _638  and  _640
REMARK  266  A    between atoms: _640  and  _641
REMARK  267  A    between atoms: _640  and  _643
REMARK  268  A    between atoms: _647  and  _648
REMARK  269  A    between atoms: _653  and  _655
REMARK  270  A    between atoms: _655  and  _656
REMARK  271  A    between atoms: _655  and  _658
REMARK  272  A    between atoms: _658  and  _659
REMARK                            x       y       z     vdW  Elec       q    Type
REMARK                         _______ _______ _______ _____ _____    ______ ____
ROOT
ATOM      1  C   GLN A   3      26.945  -8.357   6.895  0.00  0.00    +0.241 C 
ATOM      2  O   GLN A   3      28.033  -8.938   6.829  0.00  0.00    -0.273 OA
ATOM      3  N   PHE A   4      26.423  -7.677   5.880  0.00  0.00    -0.297 N 
ATOM      4  H   PHE A   4      25.496  -7.221   6.000  0.00  0.00    +0.150 HD
ENDROOT
BRANCH   3   5
ATOM      5  CA  PHE A   4      27.114  -7.553   4.605  0.00  0.00    +0.153 C 
BRANCH   5   6
ATOM      6  C   PHE A   4      28.511  -6.954   4.773  0.00  0.00    +0.241 C 
ATOM      7  N   THR A   5      28.598  -5.845   5.495  0.00  0.00    -0.295 N 
ATOM      8  H   THR A   5      27.735  -5.448   5.919  0.00  0.00    +0.150 HD
ATOM      9  O   PHE A   4      29.487  -7.488   4.258  0.00  0.00    -0.273 OA
BRANCH   7  10
ATOM     10  CA  THR A   5      29.873  -5.166   5.710  0.00  0.00    +0.176 C 
BRANCH  10  11
ATOM     11  C   THR A   5      30.856  -6.040   6.465  0.00  0.00    +0.243 C 
ATOM     12  N   PHE A   6      30.348  -6.808   7.422  0.00  0.00    -0.298 N 
ATOM     13  H   PHE A   6      29.326  -6.779   7.615  0.00  0.00    +0.150 HD
ATOM     14  O   THR A   5      32.060  -6.009   6.201  0.00  0.00    -0.273 OA
BRANCH  12  15
ATOM     15  CA  PHE A   6      31.203  -7.690   8.205  0.00  0.00    +0.141 C 
BRANCH  15  16
ATOM     16  C   PHE A   6      31.847  -8.726   7.295  0.00  0.00    +0.227 C 
ATOM     17  O   PHE A   6      33.073  -8.877   7.271  0.00  0.00    -0.286 OA
ENDBRANCH  15  16
BRANCH  15  18
ATOM     18  CB  PHE A   6      30.392  -8.406   9.291  0.00  0.00    +0.054 C 
BRANCH  18  19
ATOM     19  CG  PHE A   6      31.188  -9.417  10.066  0.00  0.00    -0.020 A 
ATOM     20  CD2 PHE A   6      32.024  -9.017  11.107  0.00  0.00    -0.004 A 
ATOM     21  CE2 PHE A   6      32.788  -9.954  11.812  0.00  0.00    -0.000 A 
ATOM     22  CZ  PHE A   6      32.718 -11.307  11.473  0.00  0.00    -0.000 A 
ATOM     23  CE1 PHE A   6      31.887 -11.719  10.435  0.00  0.00    -0.000 A 
ATOM     24  CD1 PHE A   6      31.126 -10.772   9.737  0.00  0.00    -0.004 A 
ENDBRANCH  18  19
ENDBRANCH  15  18
ENDBRANCH  12  15
ENDBRANCH  10  11
BRANCH  10  25
ATOM     25  CB  THR A   5      29.683  -3.859   6.505  0.00  0.00    +0.137 C 
ATOM     26  CG2 THR A   5      31.000  -3.118   6.629  0.00  0.00    +0.034 C 
BRANCH  25  27
ATOM     27  OG1 THR A   5      28.736  -3.023   5.828  0.00  0.00    -0.382 OA
ATOM     28  HG1 THR A   5      27.870  -3.497   5.758  0.00  0.00    +0.210 HD
ENDBRANCH  25  27
ENDBRANCH  10  25
ENDBRANCH   7  10
ENDBRANCH   5   6
BRANCH   5  29
ATOM     29  CB  PHE A   4      26.288  -6.687   3.646  0.00  0.00    +0.055 C 
BRANCH  29  30
ATOM     30  CG  PHE A   4      27.058  -6.201   2.443  0.00  0.00    -0.020 A 
ATOM     31  CD2 PHE A   4      27.794  -5.019   2.501  0.00  0.00    -0.004 A 
ATOM     32  CE2 PHE A   4      28.523  -4.575   1.390  0.00  0.00    -0.000 A 
ATOM     33  CZ  PHE A   4      28.513  -5.324   0.211  0.00  0.00    -0.000 A 
ATOM     34  CE1 PHE A   4      27.780  -6.503   0.147  0.00  0.00    -0.000 A 
ATOM     35  CD1 PHE A   4      27.059  -6.934   1.257  0.00  0.00    -0.004 A 
ENDBRANCH  29  30
ENDBRANCH   5  29
ENDBRANCH   3   5
BRANCH   1  36
ATOM     36  CA  GLN A   3      26.110  -8.385   8.172  0.00  0.00    +0.149 C 
BRANCH  36  39
ATOM     37  C   HIS A   2      26.628  -6.075   8.749  0.00  0.00    +0.241 C 
ATOM     38  O   HIS A   2      27.839  -6.245   8.604  0.00  0.00    -0.273 OA
ATOM     39  N   GLN A   3      25.728  -7.036   8.562  0.00  0.00    -0.297 N 
ATOM     40  H   GLN A   3      24.721  -6.817   8.699  0.00  0.00    +0.150 HD
BRANCH  37  41
ATOM     41  CA  HIS A   2      26.079  -4.722   9.159  0.00  0.00    +0.155 C 
BRANCH  41  43
ATOM     42  C   LEU A   1      25.336  -4.148   6.926  0.00  0.00    +0.238 C 
ATOM     43  N   HIS A   2      25.051  -4.316   8.214  0.00  0.00    -0.297 N 
ATOM     44  H   HIS A   2      24.080  -4.155   8.550  0.00  0.00    +0.150 HD
ATOM     45  O   LEU A   1      26.475  -4.314   6.466  0.00  0.00    -0.274 OA
BRANCH  42  46
ATOM     46  CA  LEU A   1      24.164  -3.749   6.025  0.00  0.00    +0.145 C 
BRANCH  46  47
ATOM     47  N   LEU A   1      22.978  -4.492   6.446  0.00  0.00    -0.238 NA
ATOM     48  H   LEU A   1      22.181  -3.986   6.882  0.00  0.00    +0.142 HD
ENDBRANCH  46  47
BRANCH  46  49
ATOM     49  CB  LEU A   1      23.895  -2.239   6.101  0.00  0.00    +0.026 C 
BRANCH  49  50
ATOM     50  CG  LEU A   1      22.952  -1.698   5.018  0.00  0.00    +0.002 C 
ATOM     51  CD2 LEU A   1      22.606  -0.231   5.278  0.00  0.00    +0.000 C 
ATOM     52  CD1 LEU A   1      23.615  -1.862   3.655  0.00  0.00    +0.000 C 
ENDBRANCH  49  50
ENDBRANCH  46  49
ENDBRANCH  42  46
ENDBRANCH  41  43
BRANCH  41  53
ATOM     53  CB  HIS A   2      25.505  -4.809  10.573  0.00  0.00    +0.076 C 
BRANCH  53  54
ATOM     54  CG  HIS A   2      25.510  -3.503  11.304  0.00  0.00    +0.082 A 
ATOM     55  ND1 HIS A   2      24.522  -3.144  12.197  0.00  0.00    -0.227 NA
ATOM     56  CE1 HIS A   2      24.801  -1.957  12.703  0.00  0.00    +0.199 A 
ATOM     57  NE2 HIS A   2      25.933  -1.532  12.172  0.00  0.00    -0.221 NA
ATOM     58  CD2 HIS A   2      26.397  -2.481  11.292  0.00  0.00    +0.115 A 
ENDBRANCH  53  54
ENDBRANCH  41  53
ENDBRANCH  37  41
ENDBRANCH  36  39
BRANCH  36  59
ATOM     59  CB  GLN A   3      24.856  -9.230   7.954  0.00  0.00    +0.039 C 
BRANCH  59  60
ATOM     60  CG  GLN A   3      25.136 -10.707   7.765  0.00  0.00    +0.087 C 
BRANCH  60  61
ATOM     61  CD  GLN A   3      25.928 -11.290   8.916  0.00  0.00    +0.219 C 
ATOM     62  NE2 GLN A   3      25.241 -11.575  10.021  0.00  0.00    -0.329 N 
ATOM     63 HE21 GLN A   3      25.730 -11.967  10.851  0.00  0.00    +0.145 HD
ATOM     64 HE22 GLN A   3      24.215 -11.405  10.054  0.00  0.00    +0.145 HD
ATOM     65  OE1 GLN A   3      27.149 -11.472   8.822  0.00  0.00    -0.275 OA
ENDBRANCH  60  61
ENDBRANCH  59  60
ENDBRANCH  36  59
ENDBRANCH   1  36
TORSDOF 25
REMARK  Name = ../refined-set-2016/3b65/3b65_pocket.pdb
REMARK  272 active torsions:
REMARK  status: ('A' for Active; 'I' for Inactive)
REMARK    1  A    between atoms: _1  and  _3
REMARK    2  A    between atoms: _3  and  _4
REMARK    3  A    between atoms: _3  and  _6
REMARK    4  A    between atoms: _9  and  _11
REMARK    5  A    between atoms: _11  and  _12
REMARK    6  A    between atoms: _15  and  _17
REMARK    7  A    between atoms: _17  and  _18
REMARK    8  A    between atoms: _17  and  _20
REMARK    9  A    between atoms: _20  and  _21
REMARK   10  A    between atoms: _27  and  _29
REMARK   11  A    between atoms: _29  and  _30
REMARK   12  A    between atoms: _29  and  _32
REMARK   13  A    between atoms: _32  and  _33
REMARK   14  A    between atoms: _36  and  _38
REMARK   15  A    between atoms: _38  and  _39
REMARK   16  A    between atoms: _38  and  _41
REMARK   17  A    between atoms: _41  and  _42
REMARK   18  A    between atoms: _45  and  _47
REMARK   19  A    between atoms: _47  and  _48
REMARK   20  A    between atoms: _47  and  _50
REMARK   21  A    between atoms: _50  and  _51
REMARK   22  A    between atoms: _53  and  _55
REMARK   23  A    between atoms: _55  and  _56
REMARK   24  A    between atoms: _55  and  _58
REMARK   25  A    between atoms: _58  and  _59
REMARK   26  A    between atoms: _61  and  _63
REMARK   27  A    between atoms: _63  and  _64
REMARK   28  A    between atoms: _63  and  _66
REMARK   29  A    between atoms: _66  and  _67
REMARK   30  A    between atoms: _70  and  _72
REMARK   31  A    between atoms: _72  and  _73
REMARK   32  A    between atoms: _72  and  _75
REMARK   33  A    between atoms: _75  and  _76
REMARK   34  A    between atoms: _81  and  _83
REMARK   35  A    between atoms: _83  and  _84
REMARK   36  A    between atoms: _83  and  _86
REMARK   37  A    between atoms: _86  and  _87
REMARK   38  A    between atoms: _87  and  _88
REMARK   39  A    between atoms: _91  and  _93
REMARK   40  A    between atoms: _93  and  _94
REMARK   41  A    between atoms: _93  and  _96
REMARK   42  A    between atoms: _96  and  _97
REMARK   43  A    between atoms: _100  and  _102
REMARK   44  A    between atoms: _102  and  _103
REMARK   45  A    between atoms: _105  and  _107
REMARK   46  A    between atoms: _107  and  _108
REMARK   47  A    between atoms: _107  and  _110
REMARK   48  A    between atoms: _110  and  _111
REMARK   49  A    between atoms: _111  and  _112
REMARK   50  A    between atoms: _115  and  _117
REMARK   51  A    between atoms: _117  and  _118
REMARK   52  A    between atoms: _117  and  _120
REMARK   53  A    between atoms: _120  and  _121
REMARK   54  A    between atoms: _121  and  _122
REMARK   55  A    between atoms: _122  and  _123
REMARK   56  A    between atoms: _132  and  _134
REMARK   57  A    between atoms: _134  and  _135
REMARK   58  A    between atoms: _134  and  _137
REMARK   59  A    between atoms: _137  and  _138
REMARK   60  A    between atoms: _138  and  _139
REMARK   61  A    between atoms: _144  and  _146
REMARK   62  A    between atoms: _146  and  _147
REMARK   63  A    between atoms: _146  and  _149
REMARK   64  A    between atoms: _149  and  _150
REMARK   65  A    between atoms: _153  and  _155
REMARK   66  A    between atoms: _155  and  _156
REMARK   67  A    between atoms: _155  and  _158
REMARK   68  A    between atoms: _158  and  _159
REMARK   69  A    between atoms: _162  and  _164
REMARK   70  A    between atoms: _164  and  _165
REMARK   71  A    between atoms: _164  and  _167
REMARK   72  A    between atoms: _167  and  _168
REMARK   73  A    between atoms: _168  and  _169
REMARK   74  A    between atoms: _174  and  _176
REMARK   75  A    between atoms: _176  and  _177
REMARK   76  A    between atoms: _176  and  _179
REMARK   77  A    between atoms: _179  and  _180
REMARK   78  A    between atoms: _185  and  _186
REMARK   79  A    between atoms: _188  and  _190
REMARK   80  A    between atoms: _190  and  _191
REMARK   81  A    between atoms: _190  and  _193
REMARK   82  A    between atoms: _193  and  _194
REMARK   83  A    between atoms: _196  and  _198
REMARK   84  A    between atoms: _198  and  _199
REMARK   85  A    between atoms: _198  and  _201
REMARK   86  A    between atoms: _201  and  _202
REMARK   87  A    between atoms: _212  and  _214
REMARK   88  A    between atoms: _214  and  _215
REMARK   89  A    between atoms: _214  and  _217
REMARK   90  A    between atoms: _217  and  _218
REMARK   91  A    between atoms: _218  and  _219
REMARK   92  A    between atoms: _221  and  _223
REMARK   93  A    between atoms: _223  and  _224
REMARK   94  A    between atoms: _226  and  _228
REMARK   95  A    between atoms: _228  and  _229
REMARK   96  A    between atoms: _228  and  _231
REMARK   97  A    between atoms: _231  and  _232
REMARK   98  A    between atoms: _235  and  _237
REMARK   99  A    between atoms: _237  and  _238
REMARK  100  A    between atoms: _237  and  _240
REMARK  101  A    between atoms: _240  and  _241
REMARK  102  A    between atoms: _241  and  _242
REMARK  103  A    between atoms: _244  and  _246
REMARK  104  A    between atoms: _246  and  _247
REMARK  105  A    between atoms: _246  and  _249
REMARK  106  A    between atoms: _252  and  _254
REMARK  107  A    between atoms: _254  and  _255
REMARK  108  A    between atoms: _254  and  _257
REMARK  109  A    between atoms: _257  and  _258
REMARK  110  A    between atoms: _264  and  _266
REMARK  111  A    between atoms: _266  and  _267
REMARK  112  A    between atoms: _270  and  _272
REMARK  113  A    between atoms: _272  and  _273
REMARK  114  A    between atoms: _272  and  _275
REMARK  115  A    between atoms: _275  and  _276
REMARK  116  A    between atoms: _276  and  _277
REMARK  117  A    between atoms: _279  and  _281
REMARK  118  A    between atoms: _281  and  _282
REMARK  119  A    between atoms: _284  and  _286
REMARK  120  A    between atoms: _286  and  _287
REMARK  121  A    between atoms: _286  and  _289
REMARK  122  A    between atoms: _289  and  _290
REMARK  123  A    between atoms: _290  and  _291
REMARK  124  A    between atoms: _291  and  _292
REMARK  125  A    between atoms: _301  and  _303
REMARK  126  A    between atoms: _303  and  _304
REMARK  127  A    between atoms: _303  and  _306
REMARK  128  A    between atoms: _306  and  _307
REMARK  129  A    between atoms: _309  and  _311
REMARK  130  A    between atoms: _311  and  _312
REMARK  131  A    between atoms: _311  and  _314
REMARK  132  A    between atoms: _314  and  _315
REMARK  133  A    between atoms: _318  and  _320
REMARK  134  A    between atoms: _320  and  _321
REMARK  135  A    between atoms: _320  and  _323
REMARK  136  A    between atoms: _323  and  _324
REMARK  137  A    between atoms: _329  and  _330
REMARK  138  A    between atoms: _332  and  _334
REMARK  139  A    between atoms: _334  and  _335
REMARK  140  A    between atoms: _334  and  _337
REMARK  141  A    between atoms: _337  and  _338
REMARK  142  A    between atoms: _344  and  _346
REMARK  143  A    between atoms: _346  and  _347
REMARK  144  A    between atoms: _350  and  _352
REMARK  145  A    between atoms: _352  and  _353
REMARK  146  A    between atoms: _352  and  _355
REMARK  147  A    between atoms: _355  and  _356
REMARK  148  A    between atoms: _359  and  _361
REMARK  149  A    between atoms: _361  and  _362
REMARK  150  A    between atoms: _361  and  _364
REMARK  151  A    between atoms: _364  and  _365
REMARK  152  A    between atoms: _371  and  _373
REMARK  153  A    between atoms: _373  and  _374
REMARK  154  A    between atoms: _373  and  _376
REMARK  155  A    between atoms: _376  and  _377
REMARK  156  A    between atoms: _379  and  _381
REMARK  157  A    between atoms: _381  and  _382
REMARK  158  A    between atoms: _381  and  _384
REMARK  159  A    between atoms: _384  and  _385
REMARK  160  A    between atoms: _385  and  _386
REMARK  161  A    between atoms: _388  and  _390
REMARK  162  A    between atoms: _390  and  _391
REMARK  163  A    between atoms: _390  and  _393
REMARK  164  A    between atoms: _393  and  _394
REMARK  165  A    between atoms: _394  and  _395
REMARK  166  A    between atoms: _400  and  _402
REMARK  167  A    between atoms: _402  and  _403
REMARK  168  A    between atoms: _402  and  _405
REMARK  169  A    between atoms: _407  and  _409
REMARK  170  A    between atoms: _409  and  _410
REMARK  171  A    between atoms: _409  and  _412
REMARK  172  A    between atoms: _412  and  _413
REMARK  173  A    between atoms: _413  and  _414
REMARK  174  A    between atoms: _416  and  _418
REMARK  175  A    between atoms: _418  and  _419
REMARK  176  A    between atoms: _418  and  _421
REMARK  177  A    between atoms: _421  and  _422
REMARK  178  A    between atoms: _425  and  _427
REMARK  179  A    between atoms: _427  and  _428
REMARK  180  A    between atoms: _427  and  _430
REMARK  181  A    between atoms: _430  and  _431
REMARK  182  A    between atoms: _434  and  _436
REMARK  183  A    between atoms: _436  and  _437
REMARK  184  A    between atoms: _436  and  _439
REMARK  185  A    between atoms: _439  and  _440
REMARK  186  A    between atoms: _443  and  _445
REMARK  187  A    between atoms: _445  and  _446
REMARK  188  A    between atoms: _449  and  _451
REMARK  189  A    between atoms: _451  and  _452
REMARK  190  A    between atoms: _451  and  _454
REMARK  191  A    between atoms: _454  and  _455
REMARK  192  A    between atoms: _458  and  _460
REMARK  193  A    between atoms: _460  and  _461
REMARK  194  A    between atoms: _460  and  _463
REMARK  195  A    between atoms: _463  and  _464
REMARK  196  A    between atoms: _469  and  _471
REMARK  197  A    between atoms: _471  and  _472
REMARK  198  A    between atoms: _471  and  _474
REMARK  199  A    between atoms: _474  and  _475
REMARK  200  A    between atoms: _475  and  _476
REMARK  201  A    between atoms: _481  and  _483
REMARK  202  A    between atoms: _483  and  _484
REMARK  203  A    between atoms: _483  and  _486
REMARK  204  A    between atoms: _486  and  _487
REMARK  205  A    between atoms: _493  and  _495
REMARK  206  A    between atoms: _495  and  _496
REMARK  207  A    between atoms: _495  and  _498
REMARK  208  A    between atoms: _498  and  _499
REMARK  209  A    between atoms: _502  and  _504
REMARK  210  A    between atoms: _504  and  _505
REMARK  211  A    between atoms: _504  and  _507
REMARK  212  A    between atoms: _507  and  _508
REMARK  213  A    between atoms: _514  and  _516
REMARK  214  A    between atoms: _516  and  _517
REMARK  215  A    between atoms: _516  and  _519
REMARK  216  A    between atoms: _519  and  _520
REMARK  217  A    between atoms: _523  and  _525
REMARK  218  A    between atoms: _525  and  _526
REMARK  219  A    between atoms: _525  and  _528
REMARK  220  A    between atoms: _528  and  _529
REMARK  221  A    between atoms: _532  and  _534
REMARK  222  A    between atoms: _534  and  _535
REMARK  223  A    between atoms: _534  and  _537
REMARK  224  A    between atoms: _540  and  _542
REMARK  225  A    between atoms: _542  and  _543
REMARK  226  A    between atoms: _542  and  _545
REMARK  227  A    between atoms: _545  and  _546
REMARK  228  A    between atoms: _549  and  _551
REMARK  229  A    between atoms: _551  and  _552
REMARK  230  A    between atoms: _551  and  _554
REMARK  231  A    between atoms: _554  and  _555
REMARK  232  A    between atoms: _562  and  _563
REMARK  233  A    between atoms: _568  and  _570
REMARK  234  A    between atoms: _570  and  _571
REMARK  235  A    between atoms: _570  and  _573
REMARK  236  A    between atoms: _573  and  _574
REMARK  237  A    between atoms: _574  and  _575
REMARK  238  A    between atoms: _577  and  _579
REMARK  239  A    between atoms: _579  and  _580
REMARK  240  A    between atoms: _579  and  _582
REMARK  241  A    between atoms: _582  and  _583
REMARK  242  A    between atoms: _583  and  _584
REMARK  243  A    between atoms: _586  and  _588
REMARK  244  A    between atoms: _588  and  _589
REMARK  245  A    between atoms: _592  and  _594
REMARK  246  A    between atoms: _594  and  _595
REMARK  247  A    between atoms: _594  and  _597
REMARK  248  A    between atoms: _597  and  _598
REMARK  249  A    between atoms: _601  and  _603
REMARK  250  A    between atoms: _603  and  _604
REMARK  251  A    between atoms: _603  and  _606
REMARK  252  A    between atoms: _606  and  _607
REMARK  253  A    between atoms: _610  and  _612
REMARK  254  A    between atoms: _612  and  _613
REMARK  255  A    between atoms: _612  and  _615
REMARK  256  A    between atoms: _615  and  _616
REMARK  257  A    between atoms: _618  and  _620
REMARK  258  A    between atoms: _620  and  _621
REMARK  259  A    between atoms: _620  and  _623
REMARK  260  A    between atoms: _626  and  _628
REMARK  261  A    between atoms: _628  and  _629
REMARK  262  A    between atoms: _628  and  _631
REMARK  263  A    between atoms: _631  and  _632
REMARK  264  A    between atoms: _632  and  _633
REMARK  265  A    between atoms: _638  and  _640
REMARK  266  A    between atoms: _640  and  _641
REMARK  267  A    between atoms: _640  and  _643
REMARK  268  A    between atoms: _647  and  _648
REMARK  269  A    between atoms: _653  and  _655
REMARK  270  A    between atoms: _655  and  _656
REMARK  271  A    between atoms: _655  and  _658
REMARK  272  A    between atoms: _658  and  _659
REMARK                            x       y       z     vdW  Elec       q    Type
REMARK                         _______ _______ _______ _____ _____    ______ ____
ROOT
ATOM      1  C   LEU A   1      34.469  -7.713   3.737  0.00  0.00    +0.238 C 
ATOM      2  N   LEU A   2      34.528  -7.274   4.990  0.00  0.00    -0.298 N 
ATOM      3  H   LEU A   2      33.647  -7.139   5.527  0.00  0.00    +0.150 HD
ATOM      4  O   LEU A   1      35.469  -7.873   3.042  0.00  0.00    -0.274 OA
ENDROOT
BRANCH   1   5
ATOM      5  CA  LEU A   1      33.081  -8.024   3.174  0.00  0.00    +0.145 C 
BRANCH   5   6
ATOM      6  N   LEU A   1      32.218  -8.705   4.132  0.00  0.00    -0.238 NA
ATOM      7  H   LEU A   1      31.317  -8.262   4.403  0.00  0.00    +0.142 HD
ENDBRANCH   5   6
BRANCH   5   8
ATOM      8  CB  LEU A   1      32.399  -6.742   2.679  0.00  0.00    +0.026 C 
BRANCH   8   9
ATOM      9  CG  LEU A   1      33.130  -5.932   1.600  0.00  0.00    +0.002 C 
ATOM     10  CD2 LEU A   1      32.153  -4.942   0.981  0.00  0.00    +0.000 C 
ATOM     11  CD1 LEU A   1      33.724  -6.860   0.537  0.00  0.00    +0.000 C 
ENDBRANCH   8   9
ENDBRANCH   5   8
ENDBRANCH   1   5
BRANCH   2  12
ATOM     12  CA  LEU A   2      35.808  -6.978   5.625  0.00  0.00    +0.137 C 
BRANCH  12  13
ATOM     13  C   LEU A   2      36.657  -8.246   5.739  0.00  0.00    +0.227 C 
ATOM     14  O   LEU A   2      37.844  -8.238   5.413  0.00  0.00    -0.286 OA
ENDBRANCH  12  13
BRANCH  12  15
ATOM     15  CB  LEU A   2      35.593  -6.395   7.026  0.00  0.00    +0.028 C 
BRANCH  15  16
ATOM     16  CG  LEU A   2      36.873  -6.112   7.824  0.00  0.00    +0.002 C 
ATOM     17  CD2 LEU A   2      36.540  -5.655   9.239  0.00  0.00    +0.000 C 
ATOM     18  CD1 LEU A   2      37.676  -5.035   7.100  0.00  0.00    +0.000 C 
ENDBRANCH  15  16
ENDBRANCH  12  15
ENDBRANCH   2  12
TORSDOF 8
REMARK  Name = ../refined-set-2016/3b65/3b65_pocket.pdb
REMARK  272 active torsions:
REMARK  status: ('A' for Active; 'I' for Inactive)
REMARK    1  A    between atoms: _1  and  _3
REMARK    2  A    between atoms: _3  and  _4
REMARK    3  A    between atoms: _3  and  _6
REMARK    4  A    between atoms: _9  and  _11
REMARK    5  A    between atoms: _11  and  _12
REMARK    6  A    between atoms: _15  and  _17
REMARK    7  A    between atoms: _17  and  _18
REMARK    8  A    between atoms: _17  and  _20
REMARK    9  A    between atoms: _20  and  _21
REMARK   10  A    between atoms: _27  and  _29
REMARK   11  A    between atoms: _29  and  _30
REMARK   12  A    between atoms: _29  and  _32
REMARK   13  A    between atoms: _32  and  _33
REMARK   14  A    between atoms: _36  and  _38
REMARK   15  A    between atoms: _38  and  _39
REMARK   16  A    between atoms: _38  and  _41
REMARK   17  A    between atoms: _41  and  _42
REMARK   18  A    between atoms: _45  and  _47
REMARK   19  A    between atoms: _47  and  _48
REMARK   20  A    between atoms: _47  and  _50
REMARK   21  A    between atoms: _50  and  _51
REMARK   22  A    between atoms: _53  and  _55
REMARK   23  A    between atoms: _55  and  _56
REMARK   24  A    between atoms: _55  and  _58
REMARK   25  A    between atoms: _58  and  _59
REMARK   26  A    between atoms: _61  and  _63
REMARK   27  A    between atoms: _63  and  _64
REMARK   28  A    between atoms: _63  and  _66
REMARK   29  A    between atoms: _66  and  _67
REMARK   30  A    between atoms: _70  and  _72
REMARK   31  A    between atoms: _72  and  _73
REMARK   32  A    between atoms: _72  and  _75
REMARK   33  A    between atoms: _75  and  _76
REMARK   34  A    between atoms: _81  and  _83
REMARK   35  A    between atoms: _83  and  _84
REMARK   36  A    between atoms: _83  and  _86
REMARK   37  A    between atoms: _86  and  _87
REMARK   38  A    between atoms: _87  and  _88
REMARK   39  A    between atoms: _91  and  _93
REMARK   40  A    between atoms: _93  and  _94
REMARK   41  A    between atoms: _93  and  _96
REMARK   42  A    between atoms: _96  and  _97
REMARK   43  A    between atoms: _100  and  _102
REMARK   44  A    between atoms: _102  and  _103
REMARK   45  A    between atoms: _105  and  _107
REMARK   46  A    between atoms: _107  and  _108
REMARK   47  A    between atoms: _107  and  _110
REMARK   48  A    between atoms: _110  and  _111
REMARK   49  A    between atoms: _111  and  _112
REMARK   50  A    between atoms: _115  and  _117
REMARK   51  A    between atoms: _117  and  _118
REMARK   52  A    between atoms: _117  and  _120
REMARK   53  A    between atoms: _120  and  _121
REMARK   54  A    between atoms: _121  and  _122
REMARK   55  A    between atoms: _122  and  _123
REMARK   56  A    between atoms: _132  and  _134
REMARK   57  A    between atoms: _134  and  _135
REMARK   58  A    between atoms: _134  and  _137
REMARK   59  A    between atoms: _137  and  _138
REMARK   60  A    between atoms: _138  and  _139
REMARK   61  A    between atoms: _144  and  _146
REMARK   62  A    between atoms: _146  and  _147
REMARK   63  A    between atoms: _146  and  _149
REMARK   64  A    between atoms: _149  and  _150
REMARK   65  A    between atoms: _153  and  _155
REMARK   66  A    between atoms: _155  and  _156
REMARK   67  A    between atoms: _155  and  _158
REMARK   68  A    between atoms: _158  and  _159
REMARK   69  A    between atoms: _162  and  _164
REMARK   70  A    between atoms: _164  and  _165
REMARK   71  A    between atoms: _164  and  _167
REMARK   72  A    between atoms: _167  and  _168
REMARK   73  A    between atoms: _168  and  _169
REMARK   74  A    between atoms: _174  and  _176
REMARK   75  A    between atoms: _176  and  _177
REMARK   76  A    between atoms: _176  and  _179
REMARK   77  A    between atoms: _179  and  _180
REMARK   78  A    between atoms: _185  and  _186
REMARK   79  A    between atoms: _188  and  _190
REMARK   80  A    between atoms: _190  and  _191
REMARK   81  A    between atoms: _190  and  _193
REMARK   82  A    between atoms: _193  and  _194
REMARK   83  A    between atoms: _196  and  _198
REMARK   84  A    between atoms: _198  and  _199
REMARK   85  A    between atoms: _198  and  _201
REMARK   86  A    between atoms: _201  and  _202
REMARK   87  A    between atoms: _212  and  _214
REMARK   88  A    between atoms: _214  and  _215
REMARK   89  A    between atoms: _214  and  _217
REMARK   90  A    between atoms: _217  and  _218
REMARK   91  A    between atoms: _218  and  _219
REMARK   92  A    between atoms: _221  and  _223
REMARK   93  A    between atoms: _223  and  _224
REMARK   94  A    between atoms: _226  and  _228
REMARK   95  A    between atoms: _228  and  _229
REMARK   96  A    between atoms: _228  and  _231
REMARK   97  A    between atoms: _231  and  _232
REMARK   98  A    between atoms: _235  and  _237
REMARK   99  A    between atoms: _237  and  _238
REMARK  100  A    between atoms: _237  and  _240
REMARK  101  A    between atoms: _240  and  _241
REMARK  102  A    between atoms: _241  and  _242
REMARK  103  A    between atoms: _244  and  _246
REMARK  104  A    between atoms: _246  and  _247
REMARK  105  A    between atoms: _246  and  _249
REMARK  106  A    between atoms: _252  and  _254
REMARK  107  A    between atoms: _254  and  _255
REMARK  108  A    between atoms: _254  and  _257
REMARK  109  A    between atoms: _257  and  _258
REMARK  110  A    between atoms: _264  and  _266
REMARK  111  A    between atoms: _266  and  _267
REMARK  112  A    between atoms: _270  and  _272
REMARK  113  A    between atoms: _272  and  _273
REMARK  114  A    between atoms: _272  and  _275
REMARK  115  A    between atoms: _275  and  _276
REMARK  116  A    between atoms: _276  and  _277
REMARK  117  A    between atoms: _279  and  _281
REMARK  118  A    between atoms: _281  and  _282
REMARK  119  A    between atoms: _284  and  _286
REMARK  120  A    between atoms: _286  and  _287
REMARK  121  A    between atoms: _286  and  _289
REMARK  122  A    between atoms: _289  and  _290
REMARK  123  A    between atoms: _290  and  _291
REMARK  124  A    between atoms: _291  and  _292
REMARK  125  A    between atoms: _301  and  _303
REMARK  126  A    between atoms: _303  and  _304
REMARK  127  A    between atoms: _303  and  _306
REMARK  128  A    between atoms: _306  and  _307
REMARK  129  A    between atoms: _309  and  _311
REMARK  130  A    between atoms: _311  and  _312
REMARK  131  A    between atoms: _311  and  _314
REMARK  132  A    between atoms: _314  and  _315
REMARK  133  A    between atoms: _318  and  _320
REMARK  134  A    between atoms: _320  and  _321
REMARK  135  A    between atoms: _320  and  _323
REMARK  136  A    between atoms: _323  and  _324
REMARK  137  A    between atoms: _329  and  _330
REMARK  138  A    between atoms: _332  and  _334
REMARK  139  A    between atoms: _334  and  _335
REMARK  140  A    between atoms: _334  and  _337
REMARK  141  A    between atoms: _337  and  _338
REMARK  142  A    between atoms: _344  and  _346
REMARK  143  A    between atoms: _346  and  _347
REMARK  144  A    between atoms: _350  and  _352
REMARK  145  A    between atoms: _352  and  _353
REMARK  146  A    between atoms: _352  and  _355
REMARK  147  A    between atoms: _355  and  _356
REMARK  148  A    between atoms: _359  and  _361
REMARK  149  A    between atoms: _361  and  _362
REMARK  150  A    between atoms: _361  and  _364
REMARK  151  A    between atoms: _364  and  _365
REMARK  152  A    between atoms: _371  and  _373
REMARK  153  A    between atoms: _373  and  _374
REMARK  154  A    between atoms: _373  and  _376
REMARK  155  A    between atoms: _376  and  _377
REMARK  156  A    between atoms: _379  and  _381
REMARK  157  A    between atoms: _381  and  _382
REMARK  158  A    between atoms: _381  and  _384
REMARK  159  A    between atoms: _384  and  _385
REMARK  160  A    between atoms: _385  and  _386
REMARK  161  A    between atoms: _388  and  _390
REMARK  162  A    between atoms: _390  and  _391
REMARK  163  A    between atoms: _390  and  _393
REMARK  164  A    between atoms: _393  and  _394
REMARK  165  A    between atoms: _394  and  _395
REMARK  166  A    between atoms: _400  and  _402
REMARK  167  A    between atoms: _402  and  _403
REMARK  168  A    between atoms: _402  and  _405
REMARK  169  A    between atoms: _407  and  _409
REMARK  170  A    between atoms: _409  and  _410
REMARK  171  A    between atoms: _409  and  _412
REMARK  172  A    between atoms: _412  and  _413
REMARK  173  A    between atoms: _413  and  _414
REMARK  174  A    between atoms: _416  and  _418
REMARK  175  A    between atoms: _418  and  _419
REMARK  176  A    between atoms: _418  and  _421
REMARK  177  A    between atoms: _421  and  _422
REMARK  178  A    between atoms: _425  and  _427
REMARK  179  A    between atoms: _427  and  _428
REMARK  180  A    between atoms: _427  and  _430
REMARK  181  A    between atoms: _430  and  _431
REMARK  182  A    between atoms: _434  and  _436
REMARK  183  A    between atoms: _436  and  _437
REMARK  184  A    between atoms: _436  and  _439
REMARK  185  A    between atoms: _439  and  _440
REMARK  186  A    between atoms: _443  and  _445
REMARK  187  A    between atoms: _445  and  _446
REMARK  188  A    between atoms: _449  and  _451
REMARK  189  A    between atoms: _451  and  _452
REMARK  190  A    between atoms: _451  and  _454
REMARK  191  A    between atoms: _454  and  _455
REMARK  192  A    between atoms: _458  and  _460
REMARK  193  A    between atoms: _460  and  _461
REMARK  194  A    between atoms: _460  and  _463
REMARK  195  A    between atoms: _463  and  _464
REMARK  196  A    between atoms: _469  and  _471
REMARK  197  A    between atoms: _471  and  _472
REMARK  198  A    between atoms: _471  and  _474
REMARK  199  A    between atoms: _474  and  _475
REMARK  200  A    between atoms: _475  and  _476
REMARK  201  A    between atoms: _481  and  _483
REMARK  202  A    between atoms: _483  and  _484
REMARK  203  A    between atoms: _483  and  _486
REMARK  204  A    between atoms: _486  and  _487
REMARK  205  A    between atoms: _493  and  _495
REMARK  206  A    between atoms: _495  and  _496
REMARK  207  A    between atoms: _495  and  _498
REMARK  208  A    between atoms: _498  and  _499
REMARK  209  A    between atoms: _502  and  _504
REMARK  210  A    between atoms: _504  and  _505
REMARK  211  A    between atoms: _504  and  _507
REMARK  212  A    between atoms: _507  and  _508
REMARK  213  A    between atoms: _514  and  _516
REMARK  214  A    between atoms: _516  and  _517
REMARK  215  A    between atoms: _516  and  _519
REMARK  216  A    between atoms: _519  and  _520
REMARK  217  A    between atoms: _523  and  _525
REMARK  218  A    between atoms: _525  and  _526
REMARK  219  A    between atoms: _525  and  _528
REMARK  220  A    between atoms: _528  and  _529
REMARK  221  A    between atoms: _532  and  _534
REMARK  222  A    between atoms: _534  and  _535
REMARK  223  A    between atoms: _534  and  _537
REMARK  224  A    between atoms: _540  and  _542
REMARK  225  A    between atoms: _542  and  _543
REMARK  226  A    between atoms: _542  and  _545
REMARK  227  A    between atoms: _545  and  _546
REMARK  228  A    between atoms: _549  and  _551
REMARK  229  A    between atoms: _551  and  _552
REMARK  230  A    between atoms: _551  and  _554
REMARK  231  A    between atoms: _554  and  _555
REMARK  232  A    between atoms: _562  and  _563
REMARK  233  A    between atoms: _568  and  _570
REMARK  234  A    between atoms: _570  and  _571
REMARK  235  A    between atoms: _570  and  _573
REMARK  236  A    between atoms: _573  and  _574
REMARK  237  A    between atoms: _574  and  _575
REMARK  238  A    between atoms: _577  and  _579
REMARK  239  A    between atoms: _579  and  _580
REMARK  240  A    between atoms: _579  and  _582
REMARK  241  A    between atoms: _582  and  _583
REMARK  242  A    between atoms: _583  and  _584
REMARK  243  A    between atoms: _586  and  _588
REMARK  244  A    between atoms: _588  and  _589
REMARK  245  A    between atoms: _592  and  _594
REMARK  246  A    between atoms: _594  and  _595
REMARK  247  A    between atoms: _594  and  _597
REMARK  248  A    between atoms: _597  and  _598
REMARK  249  A    between atoms: _601  and  _603
REMARK  250  A    between atoms: _603  and  _604
REMARK  251  A    between atoms: _603  and  _606
REMARK  252  A    between atoms: _606  and  _607
REMARK  253  A    between atoms: _610  and  _612
REMARK  254  A    between atoms: _612  and  _613
REMARK  255  A    between atoms: _612  and  _615
REMARK  256  A    between atoms: _615  and  _616
REMARK  257  A    between atoms: _618  and  _620
REMARK  258  A    between atoms: _620  and  _621
REMARK  259  A    between atoms: _620  and  _623
REMARK  260  A    between atoms: _626  and  _628
REMARK  261  A    between atoms: _628  and  _629
REMARK  262  A    between atoms: _628  and  _631
REMARK  263  A    between atoms: _631  and  _632
REMARK  264  A    between atoms: _632  and  _633
REMARK  265  A    between atoms: _638  and  _640
REMARK  266  A    between atoms: _640  and  _641
REMARK  267  A    between atoms: _640  and  _643
REMARK  268  A    between atoms: _647  and  _648
REMARK  269  A    between atoms: _653  and  _655
REMARK  270  A    between atoms: _655  and  _656
REMARK  271  A    between atoms: _655  and  _658
REMARK  272  A    between atoms: _658  and  _659
REMARK                            x       y       z     vdW  Elec       q    Type
REMARK                         _______ _______ _______ _____ _____    ______ ____
ROOT
ATOM      1  C   ASP A   2      39.094  -0.030   1.970  0.00  0.00    +0.241 C 
ATOM      2  N   PHE A   3      39.259  -0.702   3.107  0.00  0.00    -0.297 N 
ATOM      3  H   PHE A   3      39.900  -1.520   3.140  0.00  0.00    +0.150 HD
ATOM      4  O   ASP A   2      38.329   0.936   1.866  0.00  0.00    -0.273 OA
ENDROOT
BRANCH   1   5
ATOM      5  CA  ASP A   2      39.895  -0.507   0.764  0.00  0.00    +0.160 C 
BRANCH   5   8
ATOM      6  C   VAL A   1      39.097  -2.609  -0.197  0.00  0.00    +0.238 C 
ATOM      7  O   VAL A   1      39.797  -3.289   0.558  0.00  0.00    -0.274 OA
ATOM      8  N   ASP A   2      39.074  -1.279  -0.166  0.00  0.00    -0.297 N 
ATOM      9  H   ASP A   2      38.451  -0.772  -0.826  0.00  0.00    +0.150 HD
BRANCH   6  10
ATOM     10  CA  VAL A   1      38.194  -3.264  -1.245  0.00  0.00    +0.145 C 
BRANCH  10  11
ATOM     11  CB  VAL A   1      36.894  -3.765  -0.575  0.00  0.00    +0.025 C 
ATOM     12  CG2 VAL A   1      36.281  -2.660   0.278  0.00  0.00    +0.002 C 
ATOM     13  CG1 VAL A   1      35.904  -4.207  -1.648  0.00  0.00    +0.002 C 
ENDBRANCH  10  11
BRANCH  10  14
ATOM     14  N   VAL A   1      38.895  -4.351  -1.918  0.00  0.00    -0.238 NA
ATOM     15  H   VAL A   1      38.878  -5.304  -1.503  0.00  0.00    +0.142 HD
ENDBRANCH  10  14
ENDBRANCH   6  10
ENDBRANCH   5   8
BRANCH   5  16
ATOM     16  CB  ASP A   2      40.482   0.719   0.054  0.00  0.00    +0.143 C 
BRANCH  16  17
ATOM     17  CG  ASP A   2      41.246   0.358  -1.205  0.00  0.00    +0.367 C 
ATOM     18  OD2 ASP A   2      42.406   0.802  -1.345  0.00  0.00    -0.246 OA
ATOM     19  OD1 ASP A   2      40.683  -0.362  -2.059  0.00  0.00    -0.246 OA
ENDBRANCH  16  17
ENDBRANCH   5  16
ENDBRANCH   1   5
BRANCH   2  20
ATOM     20  CA  PHE A   3      38.542  -0.291   4.302  0.00  0.00    +0.153 C 
BRANCH  20  21
ATOM     21  C   PHE A   3      39.337   0.707   5.113  0.00  0.00    +0.244 C 
ATOM     22  O   PHE A   3      40.474   0.445   5.498  0.00  0.00    -0.273 OA
ATOM     23  N   PRO A   4      38.745   1.877   5.376  0.00  0.00    -0.273 N 
ATOM     24  CA  PRO A   4      39.409   2.920   6.156  0.00  0.00    +0.140 C 
ATOM     25  CB  PRO A   4      38.366   4.035   6.194  0.00  0.00    +0.030 C 
ATOM     26  CG  PRO A   4      37.580   3.825   4.944  0.00  0.00    +0.024 C 
ATOM     27  CD  PRO A   4      37.425   2.332   4.907  0.00  0.00    +0.094 C 
BRANCH  24  28
ATOM     28  C   PRO A   4      39.740   2.395   7.558  0.00  0.00    +0.227 C 
ATOM     29  O   PRO A   4      39.029   1.543   8.100  0.00  0.00    -0.286 OA
ENDBRANCH  24  28
ENDBRANCH  20  21
BRANCH  20  30
ATOM     30  CB  PHE A   3      38.187  -1.483   5.190  0.00  0.00    +0.055 C 
BRANCH  30  31
ATOM     31  CG  PHE A   3      36.930  -2.182   4.778  0.00  0.00    -0.020 A 
ATOM     32  CD2 PHE A   3      35.696  -1.744   5.246  0.00  0.00    -0.004 A 
ATOM     33  CE2 PHE A   3      34.515  -2.369   4.842  0.00  0.00    -0.000 A 
ATOM     34  CZ  PHE A   3      34.568  -3.446   3.960  0.00  0.00    -0.000 A 
ATOM     35  CE1 PHE A   3      35.800  -3.891   3.489  0.00  0.00    -0.000 A 
ATOM     36  CD1 PHE A   3      36.972  -3.257   3.900  0.00  0.00    -0.004 A 
ENDBRANCH  30  31
ENDBRANCH  20  30
ENDBRANCH   2  20
TORSDOF 12
REMARK  Name = ../refined-set-2016/3b65/3b65_pocket.pdb
REMARK  272 active torsions:
REMARK  status: ('A' for Active; 'I' for Inactive)
REMARK    1  A    between atoms: _1  and  _3
REMARK    2  A    between atoms: _3  and  _4
REMARK    3  A    between atoms: _3  and  _6
REMARK    4  A    between atoms: _9  and  _11
REMARK    5  A    between atoms: _11  and  _12
REMARK    6  A    between atoms: _15  and  _17
REMARK    7  A    between atoms: _17  and  _18
REMARK    8  A    between atoms: _17  and  _20
REMARK    9  A    between atoms: _20  and  _21
REMARK   10  A    between atoms: _27  and  _29
REMARK   11  A    between atoms: _29  and  _30
REMARK   12  A    between atoms: _29  and  _32
REMARK   13  A    between atoms: _32  and  _33
REMARK   14  A    between atoms: _36  and  _38
REMARK   15  A    between atoms: _38  and  _39
REMARK   16  A    between atoms: _38  and  _41
REMARK   17  A    between atoms: _41  and  _42
REMARK   18  A    between atoms: _45  and  _47
REMARK   19  A    between atoms: _47  and  _48
REMARK   20  A    between atoms: _47  and  _50
REMARK   21  A    between atoms: _50  and  _51
REMARK   22  A    between atoms: _53  and  _55
REMARK   23  A    between atoms: _55  and  _56
REMARK   24  A    between atoms: _55  and  _58
REMARK   25  A    between atoms: _58  and  _59
REMARK   26  A    between atoms: _61  and  _63
REMARK   27  A    between atoms: _63  and  _64
REMARK   28  A    between atoms: _63  and  _66
REMARK   29  A    between atoms: _66  and  _67
REMARK   30  A    between atoms: _70  and  _72
REMARK   31  A    between atoms: _72  and  _73
REMARK   32  A    between atoms: _72  and  _75
REMARK   33  A    between atoms: _75  and  _76
REMARK   34  A    between atoms: _81  and  _83
REMARK   35  A    between atoms: _83  and  _84
REMARK   36  A    between atoms: _83  and  _86
REMARK   37  A    between atoms: _86  and  _87
REMARK   38  A    between atoms: _87  and  _88
REMARK   39  A    between atoms: _91  and  _93
REMARK   40  A    between atoms: _93  and  _94
REMARK   41  A    between atoms: _93  and  _96
REMARK   42  A    between atoms: _96  and  _97
REMARK   43  A    between atoms: _100  and  _102
REMARK   44  A    between atoms: _102  and  _103
REMARK   45  A    between atoms: _105  and  _107
REMARK   46  A    between atoms: _107  and  _108
REMARK   47  A    between atoms: _107  and  _110
REMARK   48  A    between atoms: _110  and  _111
REMARK   49  A    between atoms: _111  and  _112
REMARK   50  A    between atoms: _115  and  _117
REMARK   51  A    between atoms: _117  and  _118
REMARK   52  A    between atoms: _117  and  _120
REMARK   53  A    between atoms: _120  and  _121
REMARK   54  A    between atoms: _121  and  _122
REMARK   55  A    between atoms: _122  and  _123
REMARK   56  A    between atoms: _132  and  _134
REMARK   57  A    between atoms: _134  and  _135
REMARK   58  A    between atoms: _134  and  _137
REMARK   59  A    between atoms: _137  and  _138
REMARK   60  A    between atoms: _138  and  _139
REMARK   61  A    between atoms: _144  and  _146
REMARK   62  A    between atoms: _146  and  _147
REMARK   63  A    between atoms: _146  and  _149
REMARK   64  A    between atoms: _149  and  _150
REMARK   65  A    between atoms: _153  and  _155
REMARK   66  A    between atoms: _155  and  _156
REMARK   67  A    between atoms: _155  and  _158
REMARK   68  A    between atoms: _158  and  _159
REMARK   69  A    between atoms: _162  and  _164
REMARK   70  A    between atoms: _164  and  _165
REMARK   71  A    between atoms: _164  and  _167
REMARK   72  A    between atoms: _167  and  _168
REMARK   73  A    between atoms: _168  and  _169
REMARK   74  A    between atoms: _174  and  _176
REMARK   75  A    between atoms: _176  and  _177
REMARK   76  A    between atoms: _176  and  _179
REMARK   77  A    between atoms: _179  and  _180
REMARK   78  A    between atoms: _185  and  _186
REMARK   79  A    between atoms: _188  and  _190
REMARK   80  A    between atoms: _190  and  _191
REMARK   81  A    between atoms: _190  and  _193
REMARK   82  A    between atoms: _193  and  _194
REMARK   83  A    between atoms: _196  and  _198
REMARK   84  A    between atoms: _198  and  _199
REMARK   85  A    between atoms: _198  and  _201
REMARK   86  A    between atoms: _201  and  _202
REMARK   87  A    between atoms: _212  and  _214
REMARK   88  A    between atoms: _214  and  _215
REMARK   89  A    between atoms: _214  and  _217
REMARK   90  A    between atoms: _217  and  _218
REMARK   91  A    between atoms: _218  and  _219
REMARK   92  A    between atoms: _221  and  _223
REMARK   93  A    between atoms: _223  and  _224
REMARK   94  A    between atoms: _226  and  _228
REMARK   95  A    between atoms: _228  and  _229
REMARK   96  A    between atoms: _228  and  _231
REMARK   97  A    between atoms: _231  and  _232
REMARK   98  A    between atoms: _235  and  _237
REMARK   99  A    between atoms: _237  and  _238
REMARK  100  A    between atoms: _237  and  _240
REMARK  101  A    between atoms: _240  and  _241
REMARK  102  A    between atoms: _241  and  _242
REMARK  103  A    between atoms: _244  and  _246
REMARK  104  A    between atoms: _246  and  _247
REMARK  105  A    between atoms: _246  and  _249
REMARK  106  A    between atoms: _252  and  _254
REMARK  107  A    between atoms: _254  and  _255
REMARK  108  A    between atoms: _254  and  _257
REMARK  109  A    between atoms: _257  and  _258
REMARK  110  A    between atoms: _264  and  _266
REMARK  111  A    between atoms: _266  and  _267
REMARK  112  A    between atoms: _270  and  _272
REMARK  113  A    between atoms: _272  and  _273
REMARK  114  A    between atoms: _272  and  _275
REMARK  115  A    between atoms: _275  and  _276
REMARK  116  A    between atoms: _276  and  _277
REMARK  117  A    between atoms: _279  and  _281
REMARK  118  A    between atoms: _281  and  _282
REMARK  119  A    between atoms: _284  and  _286
REMARK  120  A    between atoms: _286  and  _287
REMARK  121  A    between atoms: _286  and  _289
REMARK  122  A    between atoms: _289  and  _290
REMARK  123  A    between atoms: _290  and  _291
REMARK  124  A    between atoms: _291  and  _292
REMARK  125  A    between atoms: _301  and  _303
REMARK  126  A    between atoms: _303  and  _304
REMARK  127  A    between atoms: _303  and  _306
REMARK  128  A    between atoms: _306  and  _307
REMARK  129  A    between atoms: _309  and  _311
REMARK  130  A    between atoms: _311  and  _312
REMARK  131  A    between atoms: _311  and  _314
REMARK  132  A    between atoms: _314  and  _315
REMARK  133  A    between atoms: _318  and  _320
REMARK  134  A    between atoms: _320  and  _321
REMARK  135  A    between atoms: _320  and  _323
REMARK  136  A    between atoms: _323  and  _324
REMARK  137  A    between atoms: _329  and  _330
REMARK  138  A    between atoms: _332  and  _334
REMARK  139  A    between atoms: _334  and  _335
REMARK  140  A    between atoms: _334  and  _337
REMARK  141  A    between atoms: _337  and  _338
REMARK  142  A    between atoms: _344  and  _346
REMARK  143  A    between atoms: _346  and  _347
REMARK  144  A    between atoms: _350  and  _352
REMARK  145  A    between atoms: _352  and  _353
REMARK  146  A    between atoms: _352  and  _355
REMARK  147  A    between atoms: _355  and  _356
REMARK  148  A    between atoms: _359  and  _361
REMARK  149  A    between atoms: _361  and  _362
REMARK  150  A    between atoms: _361  and  _364
REMARK  151  A    between atoms: _364  and  _365
REMARK  152  A    between atoms: _371  and  _373
REMARK  153  A    between atoms: _373  and  _374
REMARK  154  A    between atoms: _373  and  _376
REMARK  155  A    between atoms: _376  and  _377
REMARK  156  A    between atoms: _379  and  _381
REMARK  157  A    between atoms: _381  and  _382
REMARK  158  A    between atoms: _381  and  _384
REMARK  159  A    between atoms: _384  and  _385
REMARK  160  A    between atoms: _385  and  _386
REMARK  161  A    between atoms: _388  and  _390
REMARK  162  A    between atoms: _390  and  _391
REMARK  163  A    between atoms: _390  and  _393
REMARK  164  A    between atoms: _393  and  _394
REMARK  165  A    between atoms: _394  and  _395
REMARK  166  A    between atoms: _400  and  _402
REMARK  167  A    between atoms: _402  and  _403
REMARK  168  A    between atoms: _402  and  _405
REMARK  169  A    between atoms: _407  and  _409
REMARK  170  A    between atoms: _409  and  _410
REMARK  171  A    between atoms: _409  and  _412
REMARK  172  A    between atoms: _412  and  _413
REMARK  173  A    between atoms: _413  and  _414
REMARK  174  A    between atoms: _416  and  _418
REMARK  175  A    between atoms: _418  and  _419
REMARK  176  A    between atoms: _418  and  _421
REMARK  177  A    between atoms: _421  and  _422
REMARK  178  A    between atoms: _425  and  _427
REMARK  179  A    between atoms: _427  and  _428
REMARK  180  A    between atoms: _427  and  _430
REMARK  181  A    between atoms: _430  and  _431
REMARK  182  A    between atoms: _434  and  _436
REMARK  183  A    between atoms: _436  and  _437
REMARK  184  A    between atoms: _436  and  _439
REMARK  185  A    between atoms: _439  and  _440
REMARK  186  A    between atoms: _443  and  _445
REMARK  187  A    between atoms: _445  and  _446
REMARK  188  A    between atoms: _449  and  _451
REMARK  189  A    between atoms: _451  and  _452
REMARK  190  A    between atoms: _451  and  _454
REMARK  191  A    between atoms: _454  and  _455
REMARK  192  A    between atoms: _458  and  _460
REMARK  193  A    between atoms: _460  and  _461
REMARK  194  A    between atoms: _460  and  _463
REMARK  195  A    between atoms: _463  and  _464
REMARK  196  A    between atoms: _469  and  _471
REMARK  197  A    between atoms: _471  and  _472
REMARK  198  A    between atoms: _471  and  _474
REMARK  199  A    between atoms: _474  and  _475
REMARK  200  A    between atoms: _475  and  _476
REMARK  201  A    between atoms: _481  and  _483
REMARK  202  A    between atoms: _483  and  _484
REMARK  203  A    between atoms: _483  and  _486
REMARK  204  A    between atoms: _486  and  _487
REMARK  205  A    between atoms: _493  and  _495
REMARK  206  A    between atoms: _495  and  _496
REMARK  207  A    between atoms: _495  and  _498
REMARK  208  A    between atoms: _498  and  _499
REMARK  209  A    between atoms: _502  and  _504
REMARK  210  A    between atoms: _504  and  _505
REMARK  211  A    between atoms: _504  and  _507
REMARK  212  A    between atoms: _507  and  _508
REMARK  213  A    between atoms: _514  and  _516
REMARK  214  A    between atoms: _516  and  _517
REMARK  215  A    between atoms: _516  and  _519
REMARK  216  A    between atoms: _519  and  _520
REMARK  217  A    between atoms: _523  and  _525
REMARK  218  A    between atoms: _525  and  _526
REMARK  219  A    between atoms: _525  and  _528
REMARK  220  A    between atoms: _528  and  _529
REMARK  221  A    between atoms: _532  and  _534
REMARK  222  A    between atoms: _534  and  _535
REMARK  223  A    between atoms: _534  and  _537
REMARK  224  A    between atoms: _540  and  _542
REMARK  225  A    between atoms: _542  and  _543
REMARK  226  A    between atoms: _542  and  _545
REMARK  227  A    between atoms: _545  and  _546
REMARK  228  A    between atoms: _549  and  _551
REMARK  229  A    between atoms: _551  and  _552
REMARK  230  A    between atoms: _551  and  _554
REMARK  231  A    between atoms: _554  and  _555
REMARK  232  A    between atoms: _562  and  _563
REMARK  233  A    between atoms: _568  and  _570
REMARK  234  A    between atoms: _570  and  _571
REMARK  235  A    between atoms: _570  and  _573
REMARK  236  A    between atoms: _573  and  _574
REMARK  237  A    between atoms: _574  and  _575
REMARK  238  A    between atoms: _577  and  _579
REMARK  239  A    between atoms: _579  and  _580
REMARK  240  A    between atoms: _579  and  _582
REMARK  241  A    between atoms: _582  and  _583
REMARK  242  A    between atoms: _583  and  _584
REMARK  243  A    between atoms: _586  and  _588
REMARK  244  A    between atoms: _588  and  _589
REMARK  245  A    between atoms: _592  and  _594
REMARK  246  A    between atoms: _594  and  _595
REMARK  247  A    between atoms: _594  and  _597
REMARK  248  A    between atoms: _597  and  _598
REMARK  249  A    between atoms: _601  and  _603
REMARK  250  A    between atoms: _603  and  _604
REMARK  251  A    between atoms: _603  and  _606
REMARK  252  A    between atoms: _606  and  _607
REMARK  253  A    between atoms: _610  and  _612
REMARK  254  A    between atoms: _612  and  _613
REMARK  255  A    between atoms: _612  and  _615
REMARK  256  A    between atoms: _615  and  _616
REMARK  257  A    between atoms: _618  and  _620
REMARK  258  A    between atoms: _620  and  _621
REMARK  259  A    between atoms: _620  and  _623
REMARK  260  A    between atoms: _626  and  _628
REMARK  261  A    between atoms: _628  and  _629
REMARK  262  A    between atoms: _628  and  _631
REMARK  263  A    between atoms: _631  and  _632
REMARK  264  A    between atoms: _632  and  _633
REMARK  265  A    between atoms: _638  and  _640
REMARK  266  A    between atoms: _640  and  _641
REMARK  267  A    between atoms: _640  and  _643
REMARK  268  A    between atoms: _647  and  _648
REMARK  269  A    between atoms: _653  and  _655
REMARK  270  A    between atoms: _655  and  _656
REMARK  271  A    between atoms: _655  and  _658
REMARK  272  A    between atoms: _658  and  _659
REMARK                            x       y       z     vdW  Elec       q    Type
REMARK                         _______ _______ _______ _____ _____    ______ ____
ROOT
ATOM      1  CA  MET A   2      35.781   1.758   9.928  0.00  0.00    +0.149 C 
ENDROOT
BRANCH   1   4
ATOM      2  C   MET A   1      37.336   2.726  11.519  0.00  0.00    +0.238 C 
ATOM      3  O   MET A   1      36.893   2.033  12.441  0.00  0.00    -0.274 OA
ATOM      4  N   MET A   2      36.873   2.660  10.274  0.00  0.00    -0.297 N 
ATOM      5  H   MET A   2      37.296   3.260   9.537  0.00  0.00    +0.150 HD
BRANCH   2   6
ATOM      6  CA  MET A   1      38.464   3.719  11.767  0.00  0.00    +0.146 C 
BRANCH   6   7
ATOM      7  N   MET A   1      39.515   3.645  10.750  0.00  0.00    -0.238 NA
ATOM      8  H   MET A   1      39.749   4.490  10.191  0.00  0.00    +0.142 HD
ENDBRANCH   6   7
BRANCH   6   9
ATOM      9  CB  MET A   1      37.878   5.135  11.849  0.00  0.00    +0.038 C 
BRANCH   9  10
ATOM     10  CG  MET A   1      38.239   5.899  13.120  0.00  0.00    +0.060 C 
BRANCH  10  11
ATOM     11  SD  MET A   1      37.841   5.036  14.679  0.00  0.00    -0.139 S 
ATOM     12  CE  MET A   1      36.144   5.595  14.965  0.00  0.00    +0.069 C 
ENDBRANCH  10  11
ENDBRANCH   9  10
ENDBRANCH   6   9
ENDBRANCH   2   6
ENDBRANCH   1   4
BRANCH   1  13
ATOM     13  C   MET A   2      36.168   0.304  10.183  0.00  0.00    +0.241 C 
ATOM     14  O   MET A   2      35.399  -0.444  10.773  0.00  0.00    -0.273 OA
ATOM     15  N   ALA A   3      37.360  -0.094   9.750  0.00  0.00    -0.298 N 
ATOM     16  H   ALA A   3      37.981   0.580   9.258  0.00  0.00    +0.150 HD
BRANCH  15  17
ATOM     17  CA  ALA A   3      37.805  -1.471   9.959  0.00  0.00    +0.137 C 
ATOM     18  CB  ALA A   3      39.210  -1.678   9.380  0.00  0.00    +0.030 C 
BRANCH  17  19
ATOM     19  C   ALA A   3      37.790  -1.835  11.442  0.00  0.00    +0.227 C 
ATOM     20  O   ALA A   3      37.352  -2.928  11.817  0.00  0.00    -0.286 OA
ENDBRANCH  17  19
ENDBRANCH  15  17
ENDBRANCH   1  13
BRANCH   1  21
ATOM     21  CB  MET A   2      35.372   1.932   8.462  0.00  0.00    +0.041 C 
BRANCH  21  22
ATOM     22  CG  MET A   2      34.063   1.227   8.123  0.00  0.00    +0.060 C 
BRANCH  22  23
ATOM     23  SD  MET A   2      33.557   1.363   6.397  0.00  0.00    -0.139 S 
ATOM     24  CE  MET A   2      32.907   3.043   6.404  0.00  0.00    +0.069 C 
ENDBRANCH  22  23
ENDBRANCH  21  22
ENDBRANCH   1  21
TORSDOF 12
REMARK  Name = ../refined-set-2016/3b65/3b65_pocket.pdb
REMARK  272 active torsions:
REMARK  status: ('A' for Active; 'I' for Inactive)
REMARK    1  A    between atoms: _1  and  _3
REMARK    2  A    between atoms: _3  and  _4
REMARK    3  A    between atoms: _3  and  _6
REMARK    4  A    between atoms: _9  and  _11
REMARK    5  A    between atoms: _11  and  _12
REMARK    6  A    between atoms: _15  and  _17
REMARK    7  A    between atoms: _17  and  _18
REMARK    8  A    between atoms: _17  and  _20
REMARK    9  A    between atoms: _20  and  _21
REMARK   10  A    between atoms: _27  and  _29
REMARK   11  A    between atoms: _29  and  _30
REMARK   12  A    between atoms: _29  and  _32
REMARK   13  A    between atoms: _32  and  _33
REMARK   14  A    between atoms: _36  and  _38
REMARK   15  A    between atoms: _38  and  _39
REMARK   16  A    between atoms: _38  and  _41
REMARK   17  A    between atoms: _41  and  _42
REMARK   18  A    between atoms: _45  and  _47
REMARK   19  A    between atoms: _47  and  _48
REMARK   20  A    between atoms: _47  and  _50
REMARK   21  A    between atoms: _50  and  _51
REMARK   22  A    between atoms: _53  and  _55
REMARK   23  A    between atoms: _55  and  _56
REMARK   24  A    between atoms: _55  and  _58
REMARK   25  A    between atoms: _58  and  _59
REMARK   26  A    between atoms: _61  and  _63
REMARK   27  A    between atoms: _63  and  _64
REMARK   28  A    between atoms: _63  and  _66
REMARK   29  A    between atoms: _66  and  _67
REMARK   30  A    between atoms: _70  and  _72
REMARK   31  A    between atoms: _72  and  _73
REMARK   32  A    between atoms: _72  and  _75
REMARK   33  A    between atoms: _75  and  _76
REMARK   34  A    between atoms: _81  and  _83
REMARK   35  A    between atoms: _83  and  _84
REMARK   36  A    between atoms: _83  and  _86
REMARK   37  A    between atoms: _86  and  _87
REMARK   38  A    between atoms: _87  and  _88
REMARK   39  A    between atoms: _91  and  _93
REMARK   40  A    between atoms: _93  and  _94
REMARK   41  A    between atoms: _93  and  _96
REMARK   42  A    between atoms: _96  and  _97
REMARK   43  A    between atoms: _100  and  _102
REMARK   44  A    between atoms: _102  and  _103
REMARK   45  A    between atoms: _105  and  _107
REMARK   46  A    between atoms: _107  and  _108
REMARK   47  A    between atoms: _107  and  _110
REMARK   48  A    between atoms: _110  and  _111
REMARK   49  A    between atoms: _111  and  _112
REMARK   50  A    between atoms: _115  and  _117
REMARK   51  A    between atoms: _117  and  _118
REMARK   52  A    between atoms: _117  and  _120
REMARK   53  A    between atoms: _120  and  _121
REMARK   54  A    between atoms: _121  and  _122
REMARK   55  A    between atoms: _122  and  _123
REMARK   56  A    between atoms: _132  and  _134
REMARK   57  A    between atoms: _134  and  _135
REMARK   58  A    between atoms: _134  and  _137
REMARK   59  A    between atoms: _137  and  _138
REMARK   60  A    between atoms: _138  and  _139
REMARK   61  A    between atoms: _144  and  _146
REMARK   62  A    between atoms: _146  and  _147
REMARK   63  A    between atoms: _146  and  _149
REMARK   64  A    between atoms: _149  and  _150
REMARK   65  A    between atoms: _153  and  _155
REMARK   66  A    between atoms: _155  and  _156
REMARK   67  A    between atoms: _155  and  _158
REMARK   68  A    between atoms: _158  and  _159
REMARK   69  A    between atoms: _162  and  _164
REMARK   70  A    between atoms: _164  and  _165
REMARK   71  A    between atoms: _164  and  _167
REMARK   72  A    between atoms: _167  and  _168
REMARK   73  A    between atoms: _168  and  _169
REMARK   74  A    between atoms: _174  and  _176
REMARK   75  A    between atoms: _176  and  _177
REMARK   76  A    between atoms: _176  and  _179
REMARK   77  A    between atoms: _179  and  _180
REMARK   78  A    between atoms: _185  and  _186
REMARK   79  A    between atoms: _188  and  _190
REMARK   80  A    between atoms: _190  and  _191
REMARK   81  A    between atoms: _190  and  _193
REMARK   82  A    between atoms: _193  and  _194
REMARK   83  A    between atoms: _196  and  _198
REMARK   84  A    between atoms: _198  and  _199
REMARK   85  A    between atoms: _198  and  _201
REMARK   86  A    between atoms: _201  and  _202
REMARK   87  A    between atoms: _212  and  _214
REMARK   88  A    between atoms: _214  and  _215
REMARK   89  A    between atoms: _214  and  _217
REMARK   90  A    between atoms: _217  and  _218
REMARK   91  A    between atoms: _218  and  _219
REMARK   92  A    between atoms: _221  and  _223
REMARK   93  A    between atoms: _223  and  _224
REMARK   94  A    between atoms: _226  and  _228
REMARK   95  A    between atoms: _228  and  _229
REMARK   96  A    between atoms: _228  and  _231
REMARK   97  A    between atoms: _231  and  _232
REMARK   98  A    between atoms: _235  and  _237
REMARK   99  A    between atoms: _237  and  _238
REMARK  100  A    between atoms: _237  and  _240
REMARK  101  A    between atoms: _240  and  _241
REMARK  102  A    between atoms: _241  and  _242
REMARK  103  A    between atoms: _244  and  _246
REMARK  104  A    between atoms: _246  and  _247
REMARK  105  A    between atoms: _246  and  _249
REMARK  106  A    between atoms: _252  and  _254
REMARK  107  A    between atoms: _254  and  _255
REMARK  108  A    between atoms: _254  and  _257
REMARK  109  A    between atoms: _257  and  _258
REMARK  110  A    between atoms: _264  and  _266
REMARK  111  A    between atoms: _266  and  _267
REMARK  112  A    between atoms: _270  and  _272
REMARK  113  A    between atoms: _272  and  _273
REMARK  114  A    between atoms: _272  and  _275
REMARK  115  A    between atoms: _275  and  _276
REMARK  116  A    between atoms: _276  and  _277
REMARK  117  A    between atoms: _279  and  _281
REMARK  118  A    between atoms: _281  and  _282
REMARK  119  A    between atoms: _284  and  _286
REMARK  120  A    between atoms: _286  and  _287
REMARK  121  A    between atoms: _286  and  _289
REMARK  122  A    between atoms: _289  and  _290
REMARK  123  A    between atoms: _290  and  _291
REMARK  124  A    between atoms: _291  and  _292
REMARK  125  A    between atoms: _301  and  _303
REMARK  126  A    between atoms: _303  and  _304
REMARK  127  A    between atoms: _303  and  _306
REMARK  128  A    between atoms: _306  and  _307
REMARK  129  A    between atoms: _309  and  _311
REMARK  130  A    between atoms: _311  and  _312
REMARK  131  A    between atoms: _311  and  _314
REMARK  132  A    between atoms: _314  and  _315
REMARK  133  A    between atoms: _318  and  _320
REMARK  134  A    between atoms: _320  and  _321
REMARK  135  A    between atoms: _320  and  _323
REMARK  136  A    between atoms: _323  and  _324
REMARK  137  A    between atoms: _329  and  _330
REMARK  138  A    between atoms: _332  and  _334
REMARK  139  A    between atoms: _334  and  _335
REMARK  140  A    between atoms: _334  and  _337
REMARK  141  A    between atoms: _337  and  _338
REMARK  142  A    between atoms: _344  and  _346
REMARK  143  A    between atoms: _346  and  _347
REMARK  144  A    between atoms: _350  and  _352
REMARK  145  A    between atoms: _352  and  _353
REMARK  146  A    between atoms: _352  and  _355
REMARK  147  A    between atoms: _355  and  _356
REMARK  148  A    between atoms: _359  and  _361
REMARK  149  A    between atoms: _361  and  _362
REMARK  150  A    between atoms: _361  and  _364
REMARK  151  A    between atoms: _364  and  _365
REMARK  152  A    between atoms: _371  and  _373
REMARK  153  A    between atoms: _373  and  _374
REMARK  154  A    between atoms: _373  and  _376
REMARK  155  A    between atoms: _376  and  _377
REMARK  156  A    between atoms: _379  and  _381
REMARK  157  A    between atoms: _381  and  _382
REMARK  158  A    between atoms: _381  and  _384
REMARK  159  A    between atoms: _384  and  _385
REMARK  160  A    between atoms: _385  and  _386
REMARK  161  A    between atoms: _388  and  _390
REMARK  162  A    between atoms: _390  and  _391
REMARK  163  A    between atoms: _390  and  _393
REMARK  164  A    between atoms: _393  and  _394
REMARK  165  A    between atoms: _394  and  _395
REMARK  166  A    between atoms: _400  and  _402
REMARK  167  A    between atoms: _402  and  _403
REMARK  168  A    between atoms: _402  and  _405
REMARK  169  A    between atoms: _407  and  _409
REMARK  170  A    between atoms: _409  and  _410
REMARK  171  A    between atoms: _409  and  _412
REMARK  172  A    between atoms: _412  and  _413
REMARK  173  A    between atoms: _413  and  _414
REMARK  174  A    between atoms: _416  and  _418
REMARK  175  A    between atoms: _418  and  _419
REMARK  176  A    between atoms: _418  and  _421
REMARK  177  A    between atoms: _421  and  _422
REMARK  178  A    between atoms: _425  and  _427
REMARK  179  A    between atoms: _427  and  _428
REMARK  180  A    between atoms: _427  and  _430
REMARK  181  A    between atoms: _430  and  _431
REMARK  182  A    between atoms: _434  and  _436
REMARK  183  A    between atoms: _436  and  _437
REMARK  184  A    between atoms: _436  and  _439
REMARK  185  A    between atoms: _439  and  _440
REMARK  186  A    between atoms: _443  and  _445
REMARK  187  A    between atoms: _445  and  _446
REMARK  188  A    between atoms: _449  and  _451
REMARK  189  A    between atoms: _451  and  _452
REMARK  190  A    between atoms: _451  and  _454
REMARK  191  A    between atoms: _454  and  _455
REMARK  192  A    between atoms: _458  and  _460
REMARK  193  A    between atoms: _460  and  _461
REMARK  194  A    between atoms: _460  and  _463
REMARK  195  A    between atoms: _463  and  _464
REMARK  196  A    between atoms: _469  and  _471
REMARK  197  A    between atoms: _471  and  _472
REMARK  198  A    between atoms: _471  and  _474
REMARK  199  A    between atoms: _474  and  _475
REMARK  200  A    between atoms: _475  and  _476
REMARK  201  A    between atoms: _481  and  _483
REMARK  202  A    between atoms: _483  and  _484
REMARK  203  A    between atoms: _483  and  _486
REMARK  204  A    between atoms: _486  and  _487
REMARK  205  A    between atoms: _493  and  _495
REMARK  206  A    between atoms: _495  and  _496
REMARK  207  A    between atoms: _495  and  _498
REMARK  208  A    between atoms: _498  and  _499
REMARK  209  A    between atoms: _502  and  _504
REMARK  210  A    between atoms: _504  and  _505
REMARK  211  A    between atoms: _504  and  _507
REMARK  212  A    between atoms: _507  and  _508
REMARK  213  A    between atoms: _514  and  _516
REMARK  214  A    between atoms: _516  and  _517
REMARK  215  A    between atoms: _516  and  _519
REMARK  216  A    between atoms: _519  and  _520
REMARK  217  A    between atoms: _523  and  _525
REMARK  218  A    between atoms: _525  and  _526
REMARK  219  A    between atoms: _525  and  _528
REMARK  220  A    between atoms: _528  and  _529
REMARK  221  A    between atoms: _532  and  _534
REMARK  222  A    between atoms: _534  and  _535
REMARK  223  A    between atoms: _534  and  _537
REMARK  224  A    between atoms: _540  and  _542
REMARK  225  A    between atoms: _542  and  _543
REMARK  226  A    between atoms: _542  and  _545
REMARK  227  A    between atoms: _545  and  _546
REMARK  228  A    between atoms: _549  and  _551
REMARK  229  A    between atoms: _551  and  _552
REMARK  230  A    between atoms: _551  and  _554
REMARK  231  A    between atoms: _554  and  _555
REMARK  232  A    between atoms: _562  and  _563
REMARK  233  A    between atoms: _568  and  _570
REMARK  234  A    between atoms: _570  and  _571
REMARK  235  A    between atoms: _570  and  _573
REMARK  236  A    between atoms: _573  and  _574
REMARK  237  A    between atoms: _574  and  _575
REMARK  238  A    between atoms: _577  and  _579
REMARK  239  A    between atoms: _579  and  _580
REMARK  240  A    between atoms: _579  and  _582
REMARK  241  A    between atoms: _582  and  _583
REMARK  242  A    between atoms: _583  and  _584
REMARK  243  A    between atoms: _586  and  _588
REMARK  244  A    between atoms: _588  and  _589
REMARK  245  A    between atoms: _592  and  _594
REMARK  246  A    between atoms: _594  and  _595
REMARK  247  A    between atoms: _594  and  _597
REMARK  248  A    between atoms: _597  and  _598
REMARK  249  A    between atoms: _601  and  _603
REMARK  250  A    between atoms: _603  and  _604
REMARK  251  A    between atoms: _603  and  _606
REMARK  252  A    between atoms: _606  and  _607
REMARK  253  A    between atoms: _610  and  _612
REMARK  254  A    between atoms: _612  and  _613
REMARK  255  A    between atoms: _612  and  _615
REMARK  256  A    between atoms: _615  and  _616
REMARK  257  A    between atoms: _618  and  _620
REMARK  258  A    between atoms: _620  and  _621
REMARK  259  A    between atoms: _620  and  _623
REMARK  260  A    between atoms: _626  and  _628
REMARK  261  A    between atoms: _628  and  _629
REMARK  262  A    between atoms: _628  and  _631
REMARK  263  A    between atoms: _631  and  _632
REMARK  264  A    between atoms: _632  and  _633
REMARK  265  A    between atoms: _638  and  _640
REMARK  266  A    between atoms: _640  and  _641
REMARK  267  A    between atoms: _640  and  _643
REMARK  268  A    between atoms: _647  and  _648
REMARK  269  A    between atoms: _653  and  _655
REMARK  270  A    between atoms: _655  and  _656
REMARK  271  A    between atoms: _655  and  _658
REMARK  272  A    between atoms: _658  and  _659
REMARK                            x       y       z     vdW  Elec       q    Type
REMARK                         _______ _______ _______ _____ _____    ______ ____
ROOT
ATOM      1  CA  VAL A   4      35.160  -4.496  17.455  0.00  0.00    +0.149 C 
ENDROOT
BRANCH   1   4
ATOM      2  C   SER A   3      35.578  -5.763  15.427  0.00  0.00    +0.243 C 
ATOM      3  O   SER A   3      35.622  -6.815  16.063  0.00  0.00    -0.273 OA
ATOM      4  N   VAL A   4      35.355  -4.587  16.009  0.00  0.00    -0.297 N 
ATOM      5  H   VAL A   4      35.319  -3.724  15.429  0.00  0.00    +0.150 HD
BRANCH   2   6
ATOM      6  CA  SER A   3      35.792  -5.782  13.912  0.00  0.00    +0.178 C 
BRANCH   6   8
ATOM      7  C   ILE A   2      33.937  -4.594  12.855  0.00  0.00    +0.241 C 
ATOM      8  N   SER A   3      35.227  -4.648  13.188  0.00  0.00    -0.295 N 
ATOM      9  H   SER A   3      35.849  -3.858  12.924  0.00  0.00    +0.150 HD
ATOM     10  O   ILE A   2      33.134  -5.475  13.146  0.00  0.00    -0.273 OA
BRANCH   7  11
ATOM     11  CA  ILE A   2      33.489  -3.359  12.082  0.00  0.00    +0.148 C 
BRANCH  11  14
ATOM     12  C   ILE A   1      33.860  -1.767  13.880  0.00  0.00    +0.238 C 
ATOM     13  O   ILE A   1      33.068  -2.354  14.621  0.00  0.00    -0.274 OA
ATOM     14  N   ILE A   2      34.126  -2.172  12.640  0.00  0.00    -0.297 N 
ATOM     15  H   ILE A   2      34.800  -1.633  12.059  0.00  0.00    +0.150 HD
BRANCH  12  16
ATOM     16  CA  ILE A   1      34.598  -0.528  14.369  0.00  0.00    +0.145 C 
BRANCH  16  17
ATOM     17  N   ILE A   1      35.958  -0.473  13.852  0.00  0.00    -0.238 NA
ATOM     18  H   ILE A   1      36.204   0.225  13.121  0.00  0.00    +0.142 HD
ENDBRANCH  16  17
BRANCH  16  19
ATOM     19  CB  ILE A   1      33.809   0.755  13.998  0.00  0.00    +0.025 C 
ATOM     20  CG2 ILE A   1      32.313   0.559  14.253  0.00  0.00    +0.002 C 
BRANCH  19  21
ATOM     21  CG1 ILE A   1      34.327   1.929  14.833  0.00  0.00    +0.002 C 
ATOM     22  CD1 ILE A   1      33.624   3.250  14.546  0.00  0.00    +0.000 C 
ENDBRANCH  19  21
ENDBRANCH  16  19
ENDBRANCH  12  16
ENDBRANCH  11  14
BRANCH  11  23
ATOM     23  CB  ILE A   2      33.855  -3.570  10.586  0.00  0.00    +0.027 C 
ATOM     24  CG2 ILE A   2      33.254  -4.876  10.078  0.00  0.00    +0.002 C 
BRANCH  23  25
ATOM     25  CG1 ILE A   2      33.318  -2.415   9.740  0.00  0.00    +0.002 C 
ATOM     26  CD1 ILE A   2      33.751  -2.473   8.298  0.00  0.00    +0.000 C 
ENDBRANCH  23  25
ENDBRANCH  11  23
ENDBRANCH   7  11
ENDBRANCH   6   8
BRANCH   6  27
ATOM     27  CB  SER A   3      37.292  -5.887  13.630  0.00  0.00    +0.166 C 
BRANCH  27  28
ATOM     28  OG  SER A   3      38.001  -4.853  14.287  0.00  0.00    -0.380 OA
ATOM     29  H   SER A   3      37.676  -3.975  13.965  0.00  0.00    +0.211 HD
ENDBRANCH  27  28
ENDBRANCH   6  27
ENDBRANCH   2   6
ENDBRANCH   1   4
BRANCH   1  30
ATOM     30  C   VAL A   4      33.713  -4.292  17.903  0.00  0.00    +0.241 C 
ATOM     31  O   VAL A   4      33.247  -4.953  18.838  0.00  0.00    -0.273 OA
ATOM     32  N   GLN A   5      32.998  -3.389  17.242  0.00  0.00    -0.297 N 
ATOM     33  H   GLN A   5      33.427  -2.883  16.441  0.00  0.00    +0.150 HD
BRANCH  32  34
ATOM     34  CA  GLN A   5      31.623  -3.096  17.622  0.00  0.00    +0.149 C 
BRANCH  34  35
ATOM     35  C   GLN A   5      30.568  -3.914  16.880  0.00  0.00    +0.241 C 
ATOM     36  O   GLN A   5      29.677  -4.505  17.495  0.00  0.00    -0.273 OA
ATOM     37  N   VAL A   6      30.670  -3.952  15.558  0.00  0.00    -0.297 N 
ATOM     38  H   VAL A   6      31.448  -3.445  15.090  0.00  0.00    +0.150 HD
BRANCH  37  39
ATOM     39  CA  VAL A   6      29.710  -4.693  14.753  0.00  0.00    +0.149 C 
BRANCH  39  40
ATOM     40  C   VAL A   6      29.487  -6.145  15.193  0.00  0.00    +0.244 C 
ATOM     41  N   PRO A   7      30.559  -6.872  15.569  0.00  0.00    -0.273 N 
ATOM     42  CA  PRO A   7      30.366  -8.266  15.995  0.00  0.00    +0.140 C 
ATOM     43  CB  PRO A   7      31.795  -8.756  16.247  0.00  0.00    +0.030 C 
ATOM     44  CG  PRO A   7      32.626  -7.879  15.315  0.00  0.00    +0.024 C 
ATOM     45  CD  PRO A   7      31.994  -6.534  15.506  0.00  0.00    +0.094 C 
ATOM     46  O   VAL A   6      28.353  -6.619  15.197  0.00  0.00    -0.273 OA
BRANCH  42  47
ATOM     47  C   PRO A   7      29.468  -8.408  17.235  0.00  0.00    +0.227 C 
ATOM     48  O   PRO A   7      28.723  -9.382  17.360  0.00  0.00    -0.286 OA
ENDBRANCH  42  47
ENDBRANCH  39  40
BRANCH  39  49
ATOM     49  CB  VAL A   6      30.103  -4.645  13.256  0.00  0.00    +0.027 C 
ATOM     50  CG2 VAL A   6      30.058  -3.190  12.761  0.00  0.00    +0.002 C 
ATOM     51  CG1 VAL A   6      29.152  -5.515  12.431  0.00  0.00    +0.002 C 
ENDBRANCH  39  49
ENDBRANCH  37  39
ENDBRANCH  34  35
BRANCH  34  52
ATOM     52  CB  GLN A   5      31.357  -1.602  17.434  0.00  0.00    +0.039 C 
BRANCH  52  53
ATOM     53  CG  GLN A   5      32.275  -0.703  18.271  0.00  0.00    +0.087 C 
BRANCH  53  54
ATOM     54  CD  GLN A   5      31.954  -0.748  19.761  0.00  0.00    +0.219 C 
ATOM     55  NE2 GLN A   5      31.814   0.422  20.373  0.00  0.00    -0.329 N 
ATOM     56 HE21 GLN A   5      31.595   0.454  21.389  0.00  0.00    +0.145 HD
ATOM     57 HE22 GLN A   5      31.924   1.306  19.836  0.00  0.00    +0.145 HD
ATOM     58  OE1 GLN A   5      31.834  -1.821  20.351  0.00  0.00    -0.275 OA
ENDBRANCH  53  54
ENDBRANCH  52  53
ENDBRANCH  34  52
ENDBRANCH  32  34
ENDBRANCH   1  30
BRANCH   1  59
ATOM     59  CB  VAL A   4      36.040  -3.360  18.074  0.00  0.00    +0.027 C 
ATOM     60  CG2 VAL A   4      35.638  -3.107  19.539  0.00  0.00    +0.002 C 
ATOM     61  CG1 VAL A   4      37.512  -3.757  18.020  0.00  0.00    +0.002 C 
ENDBRANCH   1  59
TORSDOF 24
REMARK  Name = ../refined-set-2016/3b65/3b65_pocket.pdb
REMARK  272 active torsions:
REMARK  status: ('A' for Active; 'I' for Inactive)
REMARK    1  A    between atoms: _1  and  _3
REMARK    2  A    between atoms: _3  and  _4
REMARK    3  A    between atoms: _3  and  _6
REMARK    4  A    between atoms: _9  and  _11
REMARK    5  A    between atoms: _11  and  _12
REMARK    6  A    between atoms: _15  and  _17
REMARK    7  A    between atoms: _17  and  _18
REMARK    8  A    between atoms: _17  and  _20
REMARK    9  A    between atoms: _20  and  _21
REMARK   10  A    between atoms: _27  and  _29
REMARK   11  A    between atoms: _29  and  _30
REMARK   12  A    between atoms: _29  and  _32
REMARK   13  A    between atoms: _32  and  _33
REMARK   14  A    between atoms: _36  and  _38
REMARK   15  A    between atoms: _38  and  _39
REMARK   16  A    between atoms: _38  and  _41
REMARK   17  A    between atoms: _41  and  _42
REMARK   18  A    between atoms: _45  and  _47
REMARK   19  A    between atoms: _47  and  _48
REMARK   20  A    between atoms: _47  and  _50
REMARK   21  A    between atoms: _50  and  _51
REMARK   22  A    between atoms: _53  and  _55
REMARK   23  A    between atoms: _55  and  _56
REMARK   24  A    between atoms: _55  and  _58
REMARK   25  A    between atoms: _58  and  _59
REMARK   26  A    between atoms: _61  and  _63
REMARK   27  A    between atoms: _63  and  _64
REMARK   28  A    between atoms: _63  and  _66
REMARK   29  A    between atoms: _66  and  _67
REMARK   30  A    between atoms: _70  and  _72
REMARK   31  A    between atoms: _72  and  _73
REMARK   32  A    between atoms: _72  and  _75
REMARK   33  A    between atoms: _75  and  _76
REMARK   34  A    between atoms: _81  and  _83
REMARK   35  A    between atoms: _83  and  _84
REMARK   36  A    between atoms: _83  and  _86
REMARK   37  A    between atoms: _86  and  _87
REMARK   38  A    between atoms: _87  and  _88
REMARK   39  A    between atoms: _91  and  _93
REMARK   40  A    between atoms: _93  and  _94
REMARK   41  A    between atoms: _93  and  _96
REMARK   42  A    between atoms: _96  and  _97
REMARK   43  A    between atoms: _100  and  _102
REMARK   44  A    between atoms: _102  and  _103
REMARK   45  A    between atoms: _105  and  _107
REMARK   46  A    between atoms: _107  and  _108
REMARK   47  A    between atoms: _107  and  _110
REMARK   48  A    between atoms: _110  and  _111
REMARK   49  A    between atoms: _111  and  _112
REMARK   50  A    between atoms: _115  and  _117
REMARK   51  A    between atoms: _117  and  _118
REMARK   52  A    between atoms: _117  and  _120
REMARK   53  A    between atoms: _120  and  _121
REMARK   54  A    between atoms: _121  and  _122
REMARK   55  A    between atoms: _122  and  _123
REMARK   56  A    between atoms: _132  and  _134
REMARK   57  A    between atoms: _134  and  _135
REMARK   58  A    between atoms: _134  and  _137
REMARK   59  A    between atoms: _137  and  _138
REMARK   60  A    between atoms: _138  and  _139
REMARK   61  A    between atoms: _144  and  _146
REMARK   62  A    between atoms: _146  and  _147
REMARK   63  A    between atoms: _146  and  _149
REMARK   64  A    between atoms: _149  and  _150
REMARK   65  A    between atoms: _153  and  _155
REMARK   66  A    between atoms: _155  and  _156
REMARK   67  A    between atoms: _155  and  _158
REMARK   68  A    between atoms: _158  and  _159
REMARK   69  A    between atoms: _162  and  _164
REMARK   70  A    between atoms: _164  and  _165
REMARK   71  A    between atoms: _164  and  _167
REMARK   72  A    between atoms: _167  and  _168
REMARK   73  A    between atoms: _168  and  _169
REMARK   74  A    between atoms: _174  and  _176
REMARK   75  A    between atoms: _176  and  _177
REMARK   76  A    between atoms: _176  and  _179
REMARK   77  A    between atoms: _179  and  _180
REMARK   78  A    between atoms: _185  and  _186
REMARK   79  A    between atoms: _188  and  _190
REMARK   80  A    between atoms: _190  and  _191
REMARK   81  A    between atoms: _190  and  _193
REMARK   82  A    between atoms: _193  and  _194
REMARK   83  A    between atoms: _196  and  _198
REMARK   84  A    between atoms: _198  and  _199
REMARK   85  A    between atoms: _198  and  _201
REMARK   86  A    between atoms: _201  and  _202
REMARK   87  A    between atoms: _212  and  _214
REMARK   88  A    between atoms: _214  and  _215
REMARK   89  A    between atoms: _214  and  _217
REMARK   90  A    between atoms: _217  and  _218
REMARK   91  A    between atoms: _218  and  _219
REMARK   92  A    between atoms: _221  and  _223
REMARK   93  A    between atoms: _223  and  _224
REMARK   94  A    between atoms: _226  and  _228
REMARK   95  A    between atoms: _228  and  _229
REMARK   96  A    between atoms: _228  and  _231
REMARK   97  A    between atoms: _231  and  _232
REMARK   98  A    between atoms: _235  and  _237
REMARK   99  A    between atoms: _237  and  _238
REMARK  100  A    between atoms: _237  and  _240
REMARK  101  A    between atoms: _240  and  _241
REMARK  102  A    between atoms: _241  and  _242
REMARK  103  A    between atoms: _244  and  _246
REMARK  104  A    between atoms: _246  and  _247
REMARK  105  A    between atoms: _246  and  _249
REMARK  106  A    between atoms: _252  and  _254
REMARK  107  A    between atoms: _254  and  _255
REMARK  108  A    between atoms: _254  and  _257
REMARK  109  A    between atoms: _257  and  _258
REMARK  110  A    between atoms: _264  and  _266
REMARK  111  A    between atoms: _266  and  _267
REMARK  112  A    between atoms: _270  and  _272
REMARK  113  A    between atoms: _272  and  _273
REMARK  114  A    between atoms: _272  and  _275
REMARK  115  A    between atoms: _275  and  _276
REMARK  116  A    between atoms: _276  and  _277
REMARK  117  A    between atoms: _279  and  _281
REMARK  118  A    between atoms: _281  and  _282
REMARK  119  A    between atoms: _284  and  _286
REMARK  120  A    between atoms: _286  and  _287
REMARK  121  A    between atoms: _286  and  _289
REMARK  122  A    between atoms: _289  and  _290
REMARK  123  A    between atoms: _290  and  _291
REMARK  124  A    between atoms: _291  and  _292
REMARK  125  A    between atoms: _301  and  _303
REMARK  126  A    between atoms: _303  and  _304
REMARK  127  A    between atoms: _303  and  _306
REMARK  128  A    between atoms: _306  and  _307
REMARK  129  A    between atoms: _309  and  _311
REMARK  130  A    between atoms: _311  and  _312
REMARK  131  A    between atoms: _311  and  _314
REMARK  132  A    between atoms: _314  and  _315
REMARK  133  A    between atoms: _318  and  _320
REMARK  134  A    between atoms: _320  and  _321
REMARK  135  A    between atoms: _320  and  _323
REMARK  136  A    between atoms: _323  and  _324
REMARK  137  A    between atoms: _329  and  _330
REMARK  138  A    between atoms: _332  and  _334
REMARK  139  A    between atoms: _334  and  _335
REMARK  140  A    between atoms: _334  and  _337
REMARK  141  A    between atoms: _337  and  _338
REMARK  142  A    between atoms: _344  and  _346
REMARK  143  A    between atoms: _346  and  _347
REMARK  144  A    between atoms: _350  and  _352
REMARK  145  A    between atoms: _352  and  _353
REMARK  146  A    between atoms: _352  and  _355
REMARK  147  A    between atoms: _355  and  _356
REMARK  148  A    between atoms: _359  and  _361
REMARK  149  A    between atoms: _361  and  _362
REMARK  150  A    between atoms: _361  and  _364
REMARK  151  A    between atoms: _364  and  _365
REMARK  152  A    between atoms: _371  and  _373
REMARK  153  A    between atoms: _373  and  _374
REMARK  154  A    between atoms: _373  and  _376
REMARK  155  A    between atoms: _376  and  _377
REMARK  156  A    between atoms: _379  and  _381
REMARK  157  A    between atoms: _381  and  _382
REMARK  158  A    between atoms: _381  and  _384
REMARK  159  A    between atoms: _384  and  _385
REMARK  160  A    between atoms: _385  and  _386
REMARK  161  A    between atoms: _388  and  _390
REMARK  162  A    between atoms: _390  and  _391
REMARK  163  A    between atoms: _390  and  _393
REMARK  164  A    between atoms: _393  and  _394
REMARK  165  A    between atoms: _394  and  _395
REMARK  166  A    between atoms: _400  and  _402
REMARK  167  A    between atoms: _402  and  _403
REMARK  168  A    between atoms: _402  and  _405
REMARK  169  A    between atoms: _407  and  _409
REMARK  170  A    between atoms: _409  and  _410
REMARK  171  A    between atoms: _409  and  _412
REMARK  172  A    between atoms: _412  and  _413
REMARK  173  A    between atoms: _413  and  _414
REMARK  174  A    between atoms: _416  and  _418
REMARK  175  A    between atoms: _418  and  _419
REMARK  176  A    between atoms: _418  and  _421
REMARK  177  A    between atoms: _421  and  _422
REMARK  178  A    between atoms: _425  and  _427
REMARK  179  A    between atoms: _427  and  _428
REMARK  180  A    between atoms: _427  and  _430
REMARK  181  A    between atoms: _430  and  _431
REMARK  182  A    between atoms: _434  and  _436
REMARK  183  A    between atoms: _436  and  _437
REMARK  184  A    between atoms: _436  and  _439
REMARK  185  A    between atoms: _439  and  _440
REMARK  186  A    between atoms: _443  and  _445
REMARK  187  A    between atoms: _445  and  _446
REMARK  188  A    between atoms: _449  and  _451
REMARK  189  A    between atoms: _451  and  _452
REMARK  190  A    between atoms: _451  and  _454
REMARK  191  A    between atoms: _454  and  _455
REMARK  192  A    between atoms: _458  and  _460
REMARK  193  A    between atoms: _460  and  _461
REMARK  194  A    between atoms: _460  and  _463
REMARK  195  A    between atoms: _463  and  _464
REMARK  196  A    between atoms: _469  and  _471
REMARK  197  A    between atoms: _471  and  _472
REMARK  198  A    between atoms: _471  and  _474
REMARK  199  A    between atoms: _474  and  _475
REMARK  200  A    between atoms: _475  and  _476
REMARK  201  A    between atoms: _481  and  _483
REMARK  202  A    between atoms: _483  and  _484
REMARK  203  A    between atoms: _483  and  _486
REMARK  204  A    between atoms: _486  and  _487
REMARK  205  A    between atoms: _493  and  _495
REMARK  206  A    between atoms: _495  and  _496
REMARK  207  A    between atoms: _495  and  _498
REMARK  208  A    between atoms: _498  and  _499
REMARK  209  A    between atoms: _502  and  _504
REMARK  210  A    between atoms: _504  and  _505
REMARK  211  A    between atoms: _504  and  _507
REMARK  212  A    between atoms: _507  and  _508
REMARK  213  A    between atoms: _514  and  _516
REMARK  214  A    between atoms: _516  and  _517
REMARK  215  A    between atoms: _516  and  _519
REMARK  216  A    between atoms: _519  and  _520
REMARK  217  A    between atoms: _523  and  _525
REMARK  218  A    between atoms: _525  and  _526
REMARK  219  A    between atoms: _525  and  _528
REMARK  220  A    between atoms: _528  and  _529
REMARK  221  A    between atoms: _532  and  _534
REMARK  222  A    between atoms: _534  and  _535
REMARK  223  A    between atoms: _534  and  _537
REMARK  224  A    between atoms: _540  and  _542
REMARK  225  A    between atoms: _542  and  _543
REMARK  226  A    between atoms: _542  and  _545
REMARK  227  A    between atoms: _545  and  _546
REMARK  228  A    between atoms: _549  and  _551
REMARK  229  A    between atoms: _551  and  _552
REMARK  230  A    between atoms: _551  and  _554
REMARK  231  A    between atoms: _554  and  _555
REMARK  232  A    between atoms: _562  and  _563
REMARK  233  A    between atoms: _568  and  _570
REMARK  234  A    between atoms: _570  and  _571
REMARK  235  A    between atoms: _570  and  _573
REMARK  236  A    between atoms: _573  and  _574
REMARK  237  A    between atoms: _574  and  _575
REMARK  238  A    between atoms: _577  and  _579
REMARK  239  A    between atoms: _579  and  _580
REMARK  240  A    between atoms: _579  and  _582
REMARK  241  A    between atoms: _582  and  _583
REMARK  242  A    between atoms: _583  and  _584
REMARK  243  A    between atoms: _586  and  _588
REMARK  244  A    between atoms: _588  and  _589
REMARK  245  A    between atoms: _592  and  _594
REMARK  246  A    between atoms: _594  and  _595
REMARK  247  A    between atoms: _594  and  _597
REMARK  248  A    between atoms: _597  and  _598
REMARK  249  A    between atoms: _601  and  _603
REMARK  250  A    between atoms: _603  and  _604
REMARK  251  A    between atoms: _603  and  _606
REMARK  252  A    between atoms: _606  and  _607
REMARK  253  A    between atoms: _610  and  _612
REMARK  254  A    between atoms: _612  and  _613
REMARK  255  A    between atoms: _612  and  _615
REMARK  256  A    between atoms: _615  and  _616
REMARK  257  A    between atoms: _618  and  _620
REMARK  258  A    between atoms: _620  and  _621
REMARK  259  A    between atoms: _620  and  _623
REMARK  260  A    between atoms: _626  and  _628
REMARK  261  A    between atoms: _628  and  _629
REMARK  262  A    between atoms: _628  and  _631
REMARK  263  A    between atoms: _631  and  _632
REMARK  264  A    between atoms: _632  and  _633
REMARK  265  A    between atoms: _638  and  _640
REMARK  266  A    between atoms: _640  and  _641
REMARK  267  A    between atoms: _640  and  _643
REMARK  268  A    between atoms: _647  and  _648
REMARK  269  A    between atoms: _653  and  _655
REMARK  270  A    between atoms: _655  and  _656
REMARK  271  A    between atoms: _655  and  _658
REMARK  272  A    between atoms: _658  and  _659
REMARK                            x       y       z     vdW  Elec       q    Type
REMARK                         _______ _______ _______ _____ _____    ______ ____
ROOT
ATOM      1  CA  ILE A   1      25.559  -6.494  17.466  0.00  0.00    +0.133 C 
ENDROOT
BRANCH   1   2
ATOM      2  N   ILE A   1      26.928  -6.635  17.940  0.00  0.00    -0.239 NA
ATOM      3  H   ILE A   1      27.688  -6.112  17.460  0.00  0.00    +0.142 HD
ENDBRANCH   1   2
BRANCH   1   4
ATOM      4  C   ILE A   1      25.099  -7.775  16.784  0.00  0.00    +0.224 C 
ATOM      5  O   ILE A   1      24.006  -8.277  17.050  0.00  0.00    -0.287 OA
ENDBRANCH   1   4
BRANCH   1   6
ATOM      6  CB  ILE A   1      25.440  -5.343  16.444  0.00  0.00    +0.023 C 
ATOM      7  CG2 ILE A   1      24.068  -5.367  15.791  0.00  0.00    +0.002 C 
BRANCH   6   8
ATOM      8  CG1 ILE A   1      25.715  -4.007  17.134  0.00  0.00    +0.002 C 
ATOM      9  CD1 ILE A   1      25.600  -2.792  16.209  0.00  0.00    +0.000 C 
ENDBRANCH   6   8
ENDBRANCH   1   6
TORSDOF 4
REMARK  Name = ../refined-set-2016/3b65/3b65_pocket.pdb
REMARK  272 active torsions:
REMARK  status: ('A' for Active; 'I' for Inactive)
REMARK    1  A    between atoms: _1  and  _3
REMARK    2  A    between atoms: _3  and  _4
REMARK    3  A    between atoms: _3  and  _6
REMARK    4  A    between atoms: _9  and  _11
REMARK    5  A    between atoms: _11  and  _12
REMARK    6  A    between atoms: _15  and  _17
REMARK    7  A    between atoms: _17  and  _18
REMARK    8  A    between atoms: _17  and  _20
REMARK    9  A    between atoms: _20  and  _21
REMARK   10  A    between atoms: _27  and  _29
REMARK   11  A    between atoms: _29  and  _30
REMARK   12  A    between atoms: _29  and  _32
REMARK   13  A    between atoms: _32  and  _33
REMARK   14  A    between atoms: _36  and  _38
REMARK   15  A    between atoms: _38  and  _39
REMARK   16  A    between atoms: _38  and  _41
REMARK   17  A    between atoms: _41  and  _42
REMARK   18  A    between atoms: _45  and  _47
REMARK   19  A    between atoms: _47  and  _48
REMARK   20  A    between atoms: _47  and  _50
REMARK   21  A    between atoms: _50  and  _51
REMARK   22  A    between atoms: _53  and  _55
REMARK   23  A    between atoms: _55  and  _56
REMARK   24  A    between atoms: _55  and  _58
REMARK   25  A    between atoms: _58  and  _59
REMARK   26  A    between atoms: _61  and  _63
REMARK   27  A    between atoms: _63  and  _64
REMARK   28  A    between atoms: _63  and  _66
REMARK   29  A    between atoms: _66  and  _67
REMARK   30  A    between atoms: _70  and  _72
REMARK   31  A    between atoms: _72  and  _73
REMARK   32  A    between atoms: _72  and  _75
REMARK   33  A    between atoms: _75  and  _76
REMARK   34  A    between atoms: _81  and  _83
REMARK   35  A    between atoms: _83  and  _84
REMARK   36  A    between atoms: _83  and  _86
REMARK   37  A    between atoms: _86  and  _87
REMARK   38  A    between atoms: _87  and  _88
REMARK   39  A    between atoms: _91  and  _93
REMARK   40  A    between atoms: _93  and  _94
REMARK   41  A    between atoms: _93  and  _96
REMARK   42  A    between atoms: _96  and  _97
REMARK   43  A    between atoms: _100  and  _102
REMARK   44  A    between atoms: _102  and  _103
REMARK   45  A    between atoms: _105  and  _107
REMARK   46  A    between atoms: _107  and  _108
REMARK   47  A    between atoms: _107  and  _110
REMARK   48  A    between atoms: _110  and  _111
REMARK   49  A    between atoms: _111  and  _112
REMARK   50  A    between atoms: _115  and  _117
REMARK   51  A    between atoms: _117  and  _118
REMARK   52  A    between atoms: _117  and  _120
REMARK   53  A    between atoms: _120  and  _121
REMARK   54  A    between atoms: _121  and  _122
REMARK   55  A    between atoms: _122  and  _123
REMARK   56  A    between atoms: _132  and  _134
REMARK   57  A    between atoms: _134  and  _135
REMARK   58  A    between atoms: _134  and  _137
REMARK   59  A    between atoms: _137  and  _138
REMARK   60  A    between atoms: _138  and  _139
REMARK   61  A    between atoms: _144  and  _146
REMARK   62  A    between atoms: _146  and  _147
REMARK   63  A    between atoms: _146  and  _149
REMARK   64  A    between atoms: _149  and  _150
REMARK   65  A    between atoms: _153  and  _155
REMARK   66  A    between atoms: _155  and  _156
REMARK   67  A    between atoms: _155  and  _158
REMARK   68  A    between atoms: _158  and  _159
REMARK   69  A    between atoms: _162  and  _164
REMARK   70  A    between atoms: _164  and  _165
REMARK   71  A    between atoms: _164  and  _167
REMARK   72  A    between atoms: _167  and  _168
REMARK   73  A    between atoms: _168  and  _169
REMARK   74  A    between atoms: _174  and  _176
REMARK   75  A    between atoms: _176  and  _177
REMARK   76  A    between atoms: _176  and  _179
REMARK   77  A    between atoms: _179  and  _180
REMARK   78  A    between atoms: _185  and  _186
REMARK   79  A    between atoms: _188  and  _190
REMARK   80  A    between atoms: _190  and  _191
REMARK   81  A    between atoms: _190  and  _193
REMARK   82  A    between atoms: _193  and  _194
REMARK   83  A    between atoms: _196  and  _198
REMARK   84  A    between atoms: _198  and  _199
REMARK   85  A    between atoms: _198  and  _201
REMARK   86  A    between atoms: _201  and  _202
REMARK   87  A    between atoms: _212  and  _214
REMARK   88  A    between atoms: _214  and  _215
REMARK   89  A    between atoms: _214  and  _217
REMARK   90  A    between atoms: _217  and  _218
REMARK   91  A    between atoms: _218  and  _219
REMARK   92  A    between atoms: _221  and  _223
REMARK   93  A    between atoms: _223  and  _224
REMARK   94  A    between atoms: _226  and  _228
REMARK   95  A    between atoms: _228  and  _229
REMARK   96  A    between atoms: _228  and  _231
REMARK   97  A    between atoms: _231  and  _232
REMARK   98  A    between atoms: _235  and  _237
REMARK   99  A    between atoms: _237  and  _238
REMARK  100  A    between atoms: _237  and  _240
REMARK  101  A    between atoms: _240  and  _241
REMARK  102  A    between atoms: _241  and  _242
REMARK  103  A    between atoms: _244  and  _246
REMARK  104  A    between atoms: _246  and  _247
REMARK  105  A    between atoms: _246  and  _249
REMARK  106  A    between atoms: _252  and  _254
REMARK  107  A    between atoms: _254  and  _255
REMARK  108  A    between atoms: _254  and  _257
REMARK  109  A    between atoms: _257  and  _258
REMARK  110  A    between atoms: _264  and  _266
REMARK  111  A    between atoms: _266  and  _267
REMARK  112  A    between atoms: _270  and  _272
REMARK  113  A    between atoms: _272  and  _273
REMARK  114  A    between atoms: _272  and  _275
REMARK  115  A    between atoms: _275  and  _276
REMARK  116  A    between atoms: _276  and  _277
REMARK  117  A    between atoms: _279  and  _281
REMARK  118  A    between atoms: _281  and  _282
REMARK  119  A    between atoms: _284  and  _286
REMARK  120  A    between atoms: _286  and  _287
REMARK  121  A    between atoms: _286  and  _289
REMARK  122  A    between atoms: _289  and  _290
REMARK  123  A    between atoms: _290  and  _291
REMARK  124  A    between atoms: _291  and  _292
REMARK  125  A    between atoms: _301  and  _303
REMARK  126  A    between atoms: _303  and  _304
REMARK  127  A    between atoms: _303  and  _306
REMARK  128  A    between atoms: _306  and  _307
REMARK  129  A    between atoms: _309  and  _311
REMARK  130  A    between atoms: _311  and  _312
REMARK  131  A    between atoms: _311  and  _314
REMARK  132  A    between atoms: _314  and  _315
REMARK  133  A    between atoms: _318  and  _320
REMARK  134  A    between atoms: _320  and  _321
REMARK  135  A    between atoms: _320  and  _323
REMARK  136  A    between atoms: _323  and  _324
REMARK  137  A    between atoms: _329  and  _330
REMARK  138  A    between atoms: _332  and  _334
REMARK  139  A    between atoms: _334  and  _335
REMARK  140  A    between atoms: _334  and  _337
REMARK  141  A    between atoms: _337  and  _338
REMARK  142  A    between atoms: _344  and  _346
REMARK  143  A    between atoms: _346  and  _347
REMARK  144  A    between atoms: _350  and  _352
REMARK  145  A    between atoms: _352  and  _353
REMARK  146  A    between atoms: _352  and  _355
REMARK  147  A    between atoms: _355  and  _356
REMARK  148  A    between atoms: _359  and  _361
REMARK  149  A    between atoms: _361  and  _362
REMARK  150  A    between atoms: _361  and  _364
REMARK  151  A    between atoms: _364  and  _365
REMARK  152  A    between atoms: _371  and  _373
REMARK  153  A    between atoms: _373  and  _374
REMARK  154  A    between atoms: _373  and  _376
REMARK  155  A    between atoms: _376  and  _377
REMARK  156  A    between atoms: _379  and  _381
REMARK  157  A    between atoms: _381  and  _382
REMARK  158  A    between atoms: _381  and  _384
REMARK  159  A    between atoms: _384  and  _385
REMARK  160  A    between atoms: _385  and  _386
REMARK  161  A    between atoms: _388  and  _390
REMARK  162  A    between atoms: _390  and  _391
REMARK  163  A    between atoms: _390  and  _393
REMARK  164  A    between atoms: _393  and  _394
REMARK  165  A    between atoms: _394  and  _395
REMARK  166  A    between atoms: _400  and  _402
REMARK  167  A    between atoms: _402  and  _403
REMARK  168  A    between atoms: _402  and  _405
REMARK  169  A    between atoms: _407  and  _409
REMARK  170  A    between atoms: _409  and  _410
REMARK  171  A    between atoms: _409  and  _412
REMARK  172  A    between atoms: _412  and  _413
REMARK  173  A    between atoms: _413  and  _414
REMARK  174  A    between atoms: _416  and  _418
REMARK  175  A    between atoms: _418  and  _419
REMARK  176  A    between atoms: _418  and  _421
REMARK  177  A    between atoms: _421  and  _422
REMARK  178  A    between atoms: _425  and  _427
REMARK  179  A    between atoms: _427  and  _428
REMARK  180  A    between atoms: _427  and  _430
REMARK  181  A    between atoms: _430  and  _431
REMARK  182  A    between atoms: _434  and  _436
REMARK  183  A    between atoms: _436  and  _437
REMARK  184  A    between atoms: _436  and  _439
REMARK  185  A    between atoms: _439  and  _440
REMARK  186  A    between atoms: _443  and  _445
REMARK  187  A    between atoms: _445  and  _446
REMARK  188  A    between atoms: _449  and  _451
REMARK  189  A    between atoms: _451  and  _452
REMARK  190  A    between atoms: _451  and  _454
REMARK  191  A    between atoms: _454  and  _455
REMARK  192  A    between atoms: _458  and  _460
REMARK  193  A    between atoms: _460  and  _461
REMARK  194  A    between atoms: _460  and  _463
REMARK  195  A    between atoms: _463  and  _464
REMARK  196  A    between atoms: _469  and  _471
REMARK  197  A    between atoms: _471  and  _472
REMARK  198  A    between atoms: _471  and  _474
REMARK  199  A    between atoms: _474  and  _475
REMARK  200  A    between atoms: _475  and  _476
REMARK  201  A    between atoms: _481  and  _483
REMARK  202  A    between atoms: _483  and  _484
REMARK  203  A    between atoms: _483  and  _486
REMARK  204  A    between atoms: _486  and  _487
REMARK  205  A    between atoms: _493  and  _495
REMARK  206  A    between atoms: _495  and  _496
REMARK  207  A    between atoms: _495  and  _498
REMARK  208  A    between atoms: _498  and  _499
REMARK  209  A    between atoms: _502  and  _504
REMARK  210  A    between atoms: _504  and  _505
REMARK  211  A    between atoms: _504  and  _507
REMARK  212  A    between atoms: _507  and  _508
REMARK  213  A    between atoms: _514  and  _516
REMARK  214  A    between atoms: _516  and  _517
REMARK  215  A    between atoms: _516  and  _519
REMARK  216  A    between atoms: _519  and  _520
REMARK  217  A    between atoms: _523  and  _525
REMARK  218  A    between atoms: _525  and  _526
REMARK  219  A    between atoms: _525  and  _528
REMARK  220  A    between atoms: _528  and  _529
REMARK  221  A    between atoms: _532  and  _534
REMARK  222  A    between atoms: _534  and  _535
REMARK  223  A    between atoms: _534  and  _537
REMARK  224  A    between atoms: _540  and  _542
REMARK  225  A    between atoms: _542  and  _543
REMARK  226  A    between atoms: _542  and  _545
REMARK  227  A    between atoms: _545  and  _546
REMARK  228  A    between atoms: _549  and  _551
REMARK  229  A    between atoms: _551  and  _552
REMARK  230  A    between atoms: _551  and  _554
REMARK  231  A    between atoms: _554  and  _555
REMARK  232  A    between atoms: _562  and  _563
REMARK  233  A    between atoms: _568  and  _570
REMARK  234  A    between atoms: _570  and  _571
REMARK  235  A    between atoms: _570  and  _573
REMARK  236  A    between atoms: _573  and  _574
REMARK  237  A    between atoms: _574  and  _575
REMARK  238  A    between atoms: _577  and  _579
REMARK  239  A    between atoms: _579  and  _580
REMARK  240  A    between atoms: _579  and  _582
REMARK  241  A    between atoms: _582  and  _583
REMARK  242  A    between atoms: _583  and  _584
REMARK  243  A    between atoms: _586  and  _588
REMARK  244  A    between atoms: _588  and  _589
REMARK  245  A    between atoms: _592  and  _594
REMARK  246  A    between atoms: _594  and  _595
REMARK  247  A    between atoms: _594  and  _597
REMARK  248  A    between atoms: _597  and  _598
REMARK  249  A    between atoms: _601  and  _603
REMARK  250  A    between atoms: _603  and  _604
REMARK  251  A    between atoms: _603  and  _606
REMARK  252  A    between atoms: _606  and  _607
REMARK  253  A    between atoms: _610  and  _612
REMARK  254  A    between atoms: _612  and  _613
REMARK  255  A    between atoms: _612  and  _615
REMARK  256  A    between atoms: _615  and  _616
REMARK  257  A    between atoms: _618  and  _620
REMARK  258  A    between atoms: _620  and  _621
REMARK  259  A    between atoms: _620  and  _623
REMARK  260  A    between atoms: _626  and  _628
REMARK  261  A    between atoms: _628  and  _629
REMARK  262  A    between atoms: _628  and  _631
REMARK  263  A    between atoms: _631  and  _632
REMARK  264  A    between atoms: _632  and  _633
REMARK  265  A    between atoms: _638  and  _640
REMARK  266  A    between atoms: _640  and  _641
REMARK  267  A    between atoms: _640  and  _643
REMARK  268  A    between atoms: _647  and  _648
REMARK  269  A    between atoms: _653  and  _655
REMARK  270  A    between atoms: _655  and  _656
REMARK  271  A    between atoms: _655  and  _658
REMARK  272  A    between atoms: _658  and  _659
REMARK                            x       y       z     vdW  Elec       q    Type
REMARK                         _______ _______ _______ _____ _____    ______ ____
ROOT
ATOM      1  O   HOH     1      26.470   0.962  13.261  0.00  0.00    +0.000 OA
ENDROOT
TORSDOF 0
REMARK  Name = ../refined-set-2016/3b65/3b65_pocket.pdb
REMARK  272 active torsions:
REMARK  status: ('A' for Active; 'I' for Inactive)
REMARK    1  A    between atoms: _1  and  _3
REMARK    2  A    between atoms: _3  and  _4
REMARK    3  A    between atoms: _3  and  _6
REMARK    4  A    between atoms: _9  and  _11
REMARK    5  A    between atoms: _11  and  _12
REMARK    6  A    between atoms: _15  and  _17
REMARK    7  A    between atoms: _17  and  _18
REMARK    8  A    between atoms: _17  and  _20
REMARK    9  A    between atoms: _20  and  _21
REMARK   10  A    between atoms: _27  and  _29
REMARK   11  A    between atoms: _29  and  _30
REMARK   12  A    between atoms: _29  and  _32
REMARK   13  A    between atoms: _32  and  _33
REMARK   14  A    between atoms: _36  and  _38
REMARK   15  A    between atoms: _38  and  _39
REMARK   16  A    between atoms: _38  and  _41
REMARK   17  A    between atoms: _41  and  _42
REMARK   18  A    between atoms: _45  and  _47
REMARK   19  A    between atoms: _47  and  _48
REMARK   20  A    between atoms: _47  and  _50
REMARK   21  A    between atoms: _50  and  _51
REMARK   22  A    between atoms: _53  and  _55
REMARK   23  A    between atoms: _55  and  _56
REMARK   24  A    between atoms: _55  and  _58
REMARK   25  A    between atoms: _58  and  _59
REMARK   26  A    between atoms: _61  and  _63
REMARK   27  A    between atoms: _63  and  _64
REMARK   28  A    between atoms: _63  and  _66
REMARK   29  A    between atoms: _66  and  _67
REMARK   30  A    between atoms: _70  and  _72
REMARK   31  A    between atoms: _72  and  _73
REMARK   32  A    between atoms: _72  and  _75
REMARK   33  A    between atoms: _75  and  _76
REMARK   34  A    between atoms: _81  and  _83
REMARK   35  A    between atoms: _83  and  _84
REMARK   36  A    between atoms: _83  and  _86
REMARK   37  A    between atoms: _86  and  _87
REMARK   38  A    between atoms: _87  and  _88
REMARK   39  A    between atoms: _91  and  _93
REMARK   40  A    between atoms: _93  and  _94
REMARK   41  A    between atoms: _93  and  _96
REMARK   42  A    between atoms: _96  and  _97
REMARK   43  A    between atoms: _100  and  _102
REMARK   44  A    between atoms: _102  and  _103
REMARK   45  A    between atoms: _105  and  _107
REMARK   46  A    between atoms: _107  and  _108
REMARK   47  A    between atoms: _107  and  _110
REMARK   48  A    between atoms: _110  and  _111
REMARK   49  A    between atoms: _111  and  _112
REMARK   50  A    between atoms: _115  and  _117
REMARK   51  A    between atoms: _117  and  _118
REMARK   52  A    between atoms: _117  and  _120
REMARK   53  A    between atoms: _120  and  _121
REMARK   54  A    between atoms: _121  and  _122
REMARK   55  A    between atoms: _122  and  _123
REMARK   56  A    between atoms: _132  and  _134
REMARK   57  A    between atoms: _134  and  _135
REMARK   58  A    between atoms: _134  and  _137
REMARK   59  A    between atoms: _137  and  _138
REMARK   60  A    between atoms: _138  and  _139
REMARK   61  A    between atoms: _144  and  _146
REMARK   62  A    between atoms: _146  and  _147
REMARK   63  A    between atoms: _146  and  _149
REMARK   64  A    between atoms: _149  and  _150
REMARK   65  A    between atoms: _153  and  _155
REMARK   66  A    between atoms: _155  and  _156
REMARK   67  A    between atoms: _155  and  _158
REMARK   68  A    between atoms: _158  and  _159
REMARK   69  A    between atoms: _162  and  _164
REMARK   70  A    between atoms: _164  and  _165
REMARK   71  A    between atoms: _164  and  _167
REMARK   72  A    between atoms: _167  and  _168
REMARK   73  A    between atoms: _168  and  _169
REMARK   74  A    between atoms: _174  and  _176
REMARK   75  A    between atoms: _176  and  _177
REMARK   76  A    between atoms: _176  and  _179
REMARK   77  A    between atoms: _179  and  _180
REMARK   78  A    between atoms: _185  and  _186
REMARK   79  A    between atoms: _188  and  _190
REMARK   80  A    between atoms: _190  and  _191
REMARK   81  A    between atoms: _190  and  _193
REMARK   82  A    between atoms: _193  and  _194
REMARK   83  A    between atoms: _196  and  _198
REMARK   84  A    between atoms: _198  and  _199
REMARK   85  A    between atoms: _198  and  _201
REMARK   86  A    between atoms: _201  and  _202
REMARK   87  A    between atoms: _212  and  _214
REMARK   88  A    between atoms: _214  and  _215
REMARK   89  A    between atoms: _214  and  _217
REMARK   90  A    between atoms: _217  and  _218
REMARK   91  A    between atoms: _218  and  _219
REMARK   92  A    between atoms: _221  and  _223
REMARK   93  A    between atoms: _223  and  _224
REMARK   94  A    between atoms: _226  and  _228
REMARK   95  A    between atoms: _228  and  _229
REMARK   96  A    between atoms: _228  and  _231
REMARK   97  A    between atoms: _231  and  _232
REMARK   98  A    between atoms: _235  and  _237
REMARK   99  A    between atoms: _237  and  _238
REMARK  100  A    between atoms: _237  and  _240
REMARK  101  A    between atoms: _240  and  _241
REMARK  102  A    between atoms: _241  and  _242
REMARK  103  A    between atoms: _244  and  _246
REMARK  104  A    between atoms: _246  and  _247
REMARK  105  A    between atoms: _246  and  _249
REMARK  106  A    between atoms: _252  and  _254
REMARK  107  A    between atoms: _254  and  _255
REMARK  108  A    between atoms: _254  and  _257
REMARK  109  A    between atoms: _257  and  _258
REMARK  110  A    between atoms: _264  and  _266
REMARK  111  A    between atoms: _266  and  _267
REMARK  112  A    between atoms: _270  and  _272
REMARK  113  A    between atoms: _272  and  _273
REMARK  114  A    between atoms: _272  and  _275
REMARK  115  A    between atoms: _275  and  _276
REMARK  116  A    between atoms: _276  and  _277
REMARK  117  A    between atoms: _279  and  _281
REMARK  118  A    between atoms: _281  and  _282
REMARK  119  A    between atoms: _284  and  _286
REMARK  120  A    between atoms: _286  and  _287
REMARK  121  A    between atoms: _286  and  _289
REMARK  122  A    between atoms: _289  and  _290
REMARK  123  A    between atoms: _290  and  _291
REMARK  124  A    between atoms: _291  and  _292
REMARK  125  A    between atoms: _301  and  _303
REMARK  126  A    between atoms: _303  and  _304
REMARK  127  A    between atoms: _303  and  _306
REMARK  128  A    between atoms: _306  and  _307
REMARK  129  A    between atoms: _309  and  _311
REMARK  130  A    between atoms: _311  and  _312
REMARK  131  A    between atoms: _311  and  _314
REMARK  132  A    between atoms: _314  and  _315
REMARK  133  A    between atoms: _318  and  _320
REMARK  134  A    between atoms: _320  and  _321
REMARK  135  A    between atoms: _320  and  _323
REMARK  136  A    between atoms: _323  and  _324
REMARK  137  A    between atoms: _329  and  _330
REMARK  138  A    between atoms: _332  and  _334
REMARK  139  A    between atoms: _334  and  _335
REMARK  140  A    between atoms: _334  and  _337
REMARK  141  A    between atoms: _337  and  _338
REMARK  142  A    between atoms: _344  and  _346
REMARK  143  A    between atoms: _346  and  _347
REMARK  144  A    between atoms: _350  and  _352
REMARK  145  A    between atoms: _352  and  _353
REMARK  146  A    between atoms: _352  and  _355
REMARK  147  A    between atoms: _355  and  _356
REMARK  148  A    between atoms: _359  and  _361
REMARK  149  A    between atoms: _361  and  _362
REMARK  150  A    between atoms: _361  and  _364
REMARK  151  A    between atoms: _364  and  _365
REMARK  152  A    between atoms: _371  and  _373
REMARK  153  A    between atoms: _373  and  _374
REMARK  154  A    between atoms: _373  and  _376
REMARK  155  A    between atoms: _376  and  _377
REMARK  156  A    between atoms: _379  and  _381
REMARK  157  A    between atoms: _381  and  _382
REMARK  158  A    between atoms: _381  and  _384
REMARK  159  A    between atoms: _384  and  _385
REMARK  160  A    between atoms: _385  and  _386
REMARK  161  A    between atoms: _388  and  _390
REMARK  162  A    between atoms: _390  and  _391
REMARK  163  A    between atoms: _390  and  _393
REMARK  164  A    between atoms: _393  and  _394
REMARK  165  A    between atoms: _394  and  _395
REMARK  166  A    between atoms: _400  and  _402
REMARK  167  A    between atoms: _402  and  _403
REMARK  168  A    between atoms: _402  and  _405
REMARK  169  A    between atoms: _407  and  _409
REMARK  170  A    between atoms: _409  and  _410
REMARK  171  A    between atoms: _409  and  _412
REMARK  172  A    between atoms: _412  and  _413
REMARK  173  A    between atoms: _413  and  _414
REMARK  174  A    between atoms: _416  and  _418
REMARK  175  A    between atoms: _418  and  _419
REMARK  176  A    between atoms: _418  and  _421
REMARK  177  A    between atoms: _421  and  _422
REMARK  178  A    between atoms: _425  and  _427
REMARK  179  A    between atoms: _427  and  _428
REMARK  180  A    between atoms: _427  and  _430
REMARK  181  A    between atoms: _430  and  _431
REMARK  182  A    between atoms: _434  and  _436
REMARK  183  A    between atoms: _436  and  _437
REMARK  184  A    between atoms: _436  and  _439
REMARK  185  A    between atoms: _439  and  _440
REMARK  186  A    between atoms: _443  and  _445
REMARK  187  A    between atoms: _445  and  _446
REMARK  188  A    between atoms: _449  and  _451
REMARK  189  A    between atoms: _451  and  _452
REMARK  190  A    between atoms: _451  and  _454
REMARK  191  A    between atoms: _454  and  _455
REMARK  192  A    between atoms: _458  and  _460
REMARK  193  A    between atoms: _460  and  _461
REMARK  194  A    between atoms: _460  and  _463
REMARK  195  A    between atoms: _463  and  _464
REMARK  196  A    between atoms: _469  and  _471
REMARK  197  A    between atoms: _471  and  _472
REMARK  198  A    between atoms: _471  and  _474
REMARK  199  A    between atoms: _474  and  _475
REMARK  200  A    between atoms: _475  and  _476
REMARK  201  A    between atoms: _481  and  _483
REMARK  202  A    between atoms: _483  and  _484
REMARK  203  A    between atoms: _483  and  _486
REMARK  204  A    between atoms: _486  and  _487
REMARK  205  A    between atoms: _493  and  _495
REMARK  206  A    between atoms: _495  and  _496
REMARK  207  A    between atoms: _495  and  _498
REMARK  208  A    between atoms: _498  and  _499
REMARK  209  A    between atoms: _502  and  _504
REMARK  210  A    between atoms: _504  and  _505
REMARK  211  A    between atoms: _504  and  _507
REMARK  212  A    between atoms: _507  and  _508
REMARK  213  A    between atoms: _514  and  _516
REMARK  214  A    between atoms: _516  and  _517
REMARK  215  A    between atoms: _516  and  _519
REMARK  216  A    between atoms: _519  and  _520
REMARK  217  A    between atoms: _523  and  _525
REMARK  218  A    between atoms: _525  and  _526
REMARK  219  A    between atoms: _525  and  _528
REMARK  220  A    between atoms: _528  and  _529
REMARK  221  A    between atoms: _532  and  _534
REMARK  222  A    between atoms: _534  and  _535
REMARK  223  A    between atoms: _534  and  _537
REMARK  224  A    between atoms: _540  and  _542
REMARK  225  A    between atoms: _542  and  _543
REMARK  226  A    between atoms: _542  and  _545
REMARK  227  A    between atoms: _545  and  _546
REMARK  228  A    between atoms: _549  and  _551
REMARK  229  A    between atoms: _551  and  _552
REMARK  230  A    between atoms: _551  and  _554
REMARK  231  A    between atoms: _554  and  _555
REMARK  232  A    between atoms: _562  and  _563
REMARK  233  A    between atoms: _568  and  _570
REMARK  234  A    between atoms: _570  and  _571
REMARK  235  A    between atoms: _570  and  _573
REMARK  236  A    between atoms: _573  and  _574
REMARK  237  A    between atoms: _574  and  _575
REMARK  238  A    between atoms: _577  and  _579
REMARK  239  A    between atoms: _579  and  _580
REMARK  240  A    between atoms: _579  and  _582
REMARK  241  A    between atoms: _582  and  _583
REMARK  242  A    between atoms: _583  and  _584
REMARK  243  A    between atoms: _586  and  _588
REMARK  244  A    between atoms: _588  and  _589
REMARK  245  A    between atoms: _592  and  _594
REMARK  246  A    between atoms: _594  and  _595
REMARK  247  A    between atoms: _594  and  _597
REMARK  248  A    between atoms: _597  and  _598
REMARK  249  A    between atoms: _601  and  _603
REMARK  250  A    between atoms: _603  and  _604
REMARK  251  A    between atoms: _603  and  _606
REMARK  252  A    between atoms: _606  and  _607
REMARK  253  A    between atoms: _610  and  _612
REMARK  254  A    between atoms: _612  and  _613
REMARK  255  A    between atoms: _612  and  _615
REMARK  256  A    between atoms: _615  and  _616
REMARK  257  A    between atoms: _618  and  _620
REMARK  258  A    between atoms: _620  and  _621
REMARK  259  A    between atoms: _620  and  _623
REMARK  260  A    between atoms: _626  and  _628
REMARK  261  A    between atoms: _628  and  _629
REMARK  262  A    between atoms: _628  and  _631
REMARK  263  A    between atoms: _631  and  _632
REMARK  264  A    between atoms: _632  and  _633
REMARK  265  A    between atoms: _638  and  _640
REMARK  266  A    between atoms: _640  and  _641
REMARK  267  A    between atoms: _640  and  _643
REMARK  268  A    between atoms: _647  and  _648
REMARK  269  A    between atoms: _653  and  _655
REMARK  270  A    between atoms: _655  and  _656
REMARK  271  A    between atoms: _655  and  _658
REMARK  272  A    between atoms: _658  and  _659
REMARK                            x       y       z     vdW  Elec       q    Type
REMARK                         _______ _______ _______ _____ _____    ______ ____
ROOT
ATOM      1  O   HOH     1      22.965   1.141  13.567  0.00  0.00    +0.000 OA
ENDROOT
TORSDOF 0
REMARK  Name = ../refined-set-2016/3b65/3b65_pocket.pdb
REMARK  272 active torsions:
REMARK  status: ('A' for Active; 'I' for Inactive)
REMARK    1  A    between atoms: _1  and  _3
REMARK    2  A    between atoms: _3  and  _4
REMARK    3  A    between atoms: _3  and  _6
REMARK    4  A    between atoms: _9  and  _11
REMARK    5  A    between atoms: _11  and  _12
REMARK    6  A    between atoms: _15  and  _17
REMARK    7  A    between atoms: _17  and  _18
REMARK    8  A    between atoms: _17  and  _20
REMARK    9  A    between atoms: _20  and  _21
REMARK   10  A    between atoms: _27  and  _29
REMARK   11  A    between atoms: _29  and  _30
REMARK   12  A    between atoms: _29  and  _32
REMARK   13  A    between atoms: _32  and  _33
REMARK   14  A    between atoms: _36  and  _38
REMARK   15  A    between atoms: _38  and  _39
REMARK   16  A    between atoms: _38  and  _41
REMARK   17  A    between atoms: _41  and  _42
REMARK   18  A    between atoms: _45  and  _47
REMARK   19  A    between atoms: _47  and  _48
REMARK   20  A    between atoms: _47  and  _50
REMARK   21  A    between atoms: _50  and  _51
REMARK   22  A    between atoms: _53  and  _55
REMARK   23  A    between atoms: _55  and  _56
REMARK   24  A    between atoms: _55  and  _58
REMARK   25  A    between atoms: _58  and  _59
REMARK   26  A    between atoms: _61  and  _63
REMARK   27  A    between atoms: _63  and  _64
REMARK   28  A    between atoms: _63  and  _66
REMARK   29  A    between atoms: _66  and  _67
REMARK   30  A    between atoms: _70  and  _72
REMARK   31  A    between atoms: _72  and  _73
REMARK   32  A    between atoms: _72  and  _75
REMARK   33  A    between atoms: _75  and  _76
REMARK   34  A    between atoms: _81  and  _83
REMARK   35  A    between atoms: _83  and  _84
REMARK   36  A    between atoms: _83  and  _86
REMARK   37  A    between atoms: _86  and  _87
REMARK   38  A    between atoms: _87  and  _88
REMARK   39  A    between atoms: _91  and  _93
REMARK   40  A    between atoms: _93  and  _94
REMARK   41  A    between atoms: _93  and  _96
REMARK   42  A    between atoms: _96  and  _97
REMARK   43  A    between atoms: _100  and  _102
REMARK   44  A    between atoms: _102  and  _103
REMARK   45  A    between atoms: _105  and  _107
REMARK   46  A    between atoms: _107  and  _108
REMARK   47  A    between atoms: _107  and  _110
REMARK   48  A    between atoms: _110  and  _111
REMARK   49  A    between atoms: _111  and  _112
REMARK   50  A    between atoms: _115  and  _117
REMARK   51  A    between atoms: _117  and  _118
REMARK   52  A    between atoms: _117  and  _120
REMARK   53  A    between atoms: _120  and  _121
REMARK   54  A    between atoms: _121  and  _122
REMARK   55  A    between atoms: _122  and  _123
REMARK   56  A    between atoms: _132  and  _134
REMARK   57  A    between atoms: _134  and  _135
REMARK   58  A    between atoms: _134  and  _137
REMARK   59  A    between atoms: _137  and  _138
REMARK   60  A    between atoms: _138  and  _139
REMARK   61  A    between atoms: _144  and  _146
REMARK   62  A    between atoms: _146  and  _147
REMARK   63  A    between atoms: _146  and  _149
REMARK   64  A    between atoms: _149  and  _150
REMARK   65  A    between atoms: _153  and  _155
REMARK   66  A    between atoms: _155  and  _156
REMARK   67  A    between atoms: _155  and  _158
REMARK   68  A    between atoms: _158  and  _159
REMARK   69  A    between atoms: _162  and  _164
REMARK   70  A    between atoms: _164  and  _165
REMARK   71  A    between atoms: _164  and  _167
REMARK   72  A    between atoms: _167  and  _168
REMARK   73  A    between atoms: _168  and  _169
REMARK   74  A    between atoms: _174  and  _176
REMARK   75  A    between atoms: _176  and  _177
REMARK   76  A    between atoms: _176  and  _179
REMARK   77  A    between atoms: _179  and  _180
REMARK   78  A    between atoms: _185  and  _186
REMARK   79  A    between atoms: _188  and  _190
REMARK   80  A    between atoms: _190  and  _191
REMARK   81  A    between atoms: _190  and  _193
REMARK   82  A    between atoms: _193  and  _194
REMARK   83  A    between atoms: _196  and  _198
REMARK   84  A    between atoms: _198  and  _199
REMARK   85  A    between atoms: _198  and  _201
REMARK   86  A    between atoms: _201  and  _202
REMARK   87  A    between atoms: _212  and  _214
REMARK   88  A    between atoms: _214  and  _215
REMARK   89  A    between atoms: _214  and  _217
REMARK   90  A    between atoms: _217  and  _218
REMARK   91  A    between atoms: _218  and  _219
REMARK   92  A    between atoms: _221  and  _223
REMARK   93  A    between atoms: _223  and  _224
REMARK   94  A    between atoms: _226  and  _228
REMARK   95  A    between atoms: _228  and  _229
REMARK   96  A    between atoms: _228  and  _231
REMARK   97  A    between atoms: _231  and  _232
REMARK   98  A    between atoms: _235  and  _237
REMARK   99  A    between atoms: _237  and  _238
REMARK  100  A    between atoms: _237  and  _240
REMARK  101  A    between atoms: _240  and  _241
REMARK  102  A    between atoms: _241  and  _242
REMARK  103  A    between atoms: _244  and  _246
REMARK  104  A    between atoms: _246  and  _247
REMARK  105  A    between atoms: _246  and  _249
REMARK  106  A    between atoms: _252  and  _254
REMARK  107  A    between atoms: _254  and  _255
REMARK  108  A    between atoms: _254  and  _257
REMARK  109  A    between atoms: _257  and  _258
REMARK  110  A    between atoms: _264  and  _266
REMARK  111  A    between atoms: _266  and  _267
REMARK  112  A    between atoms: _270  and  _272
REMARK  113  A    between atoms: _272  and  _273
REMARK  114  A    between atoms: _272  and  _275
REMARK  115  A    between atoms: _275  and  _276
REMARK  116  A    between atoms: _276  and  _277
REMARK  117  A    between atoms: _279  and  _281
REMARK  118  A    between atoms: _281  and  _282
REMARK  119  A    between atoms: _284  and  _286
REMARK  120  A    between atoms: _286  and  _287
REMARK  121  A    between atoms: _286  and  _289
REMARK  122  A    between atoms: _289  and  _290
REMARK  123  A    between atoms: _290  and  _291
REMARK  124  A    between atoms: _291  and  _292
REMARK  125  A    between atoms: _301  and  _303
REMARK  126  A    between atoms: _303  and  _304
REMARK  127  A    between atoms: _303  and  _306
REMARK  128  A    between atoms: _306  and  _307
REMARK  129  A    between atoms: _309  and  _311
REMARK  130  A    between atoms: _311  and  _312
REMARK  131  A    between atoms: _311  and  _314
REMARK  132  A    between atoms: _314  and  _315
REMARK  133  A    between atoms: _318  and  _320
REMARK  134  A    between atoms: _320  and  _321
REMARK  135  A    between atoms: _320  and  _323
REMARK  136  A    between atoms: _323  and  _324
REMARK  137  A    between atoms: _329  and  _330
REMARK  138  A    between atoms: _332  and  _334
REMARK  139  A    between atoms: _334  and  _335
REMARK  140  A    between atoms: _334  and  _337
REMARK  141  A    between atoms: _337  and  _338
REMARK  142  A    between atoms: _344  and  _346
REMARK  143  A    between atoms: _346  and  _347
REMARK  144  A    between atoms: _350  and  _352
REMARK  145  A    between atoms: _352  and  _353
REMARK  146  A    between atoms: _352  and  _355
REMARK  147  A    between atoms: _355  and  _356
REMARK  148  A    between atoms: _359  and  _361
REMARK  149  A    between atoms: _361  and  _362
REMARK  150  A    between atoms: _361  and  _364
REMARK  151  A    between atoms: _364  and  _365
REMARK  152  A    between atoms: _371  and  _373
REMARK  153  A    between atoms: _373  and  _374
REMARK  154  A    between atoms: _373  and  _376
REMARK  155  A    between atoms: _376  and  _377
REMARK  156  A    between atoms: _379  and  _381
REMARK  157  A    between atoms: _381  and  _382
REMARK  158  A    between atoms: _381  and  _384
REMARK  159  A    between atoms: _384  and  _385
REMARK  160  A    between atoms: _385  and  _386
REMARK  161  A    between atoms: _388  and  _390
REMARK  162  A    between atoms: _390  and  _391
REMARK  163  A    between atoms: _390  and  _393
REMARK  164  A    between atoms: _393  and  _394
REMARK  165  A    between atoms: _394  and  _395
REMARK  166  A    between atoms: _400  and  _402
REMARK  167  A    between atoms: _402  and  _403
REMARK  168  A    between atoms: _402  and  _405
REMARK  169  A    between atoms: _407  and  _409
REMARK  170  A    between atoms: _409  and  _410
REMARK  171  A    between atoms: _409  and  _412
REMARK  172  A    between atoms: _412  and  _413
REMARK  173  A    between atoms: _413  and  _414
REMARK  174  A    between atoms: _416  and  _418
REMARK  175  A    between atoms: _418  and  _419
REMARK  176  A    between atoms: _418  and  _421
REMARK  177  A    between atoms: _421  and  _422
REMARK  178  A    between atoms: _425  and  _427
REMARK  179  A    between atoms: _427  and  _428
REMARK  180  A    between atoms: _427  and  _430
REMARK  181  A    between atoms: _430  and  _431
REMARK  182  A    between atoms: _434  and  _436
REMARK  183  A    between atoms: _436  and  _437
REMARK  184  A    between atoms: _436  and  _439
REMARK  185  A    between atoms: _439  and  _440
REMARK  186  A    between atoms: _443  and  _445
REMARK  187  A    between atoms: _445  and  _446
REMARK  188  A    between atoms: _449  and  _451
REMARK  189  A    between atoms: _451  and  _452
REMARK  190  A    between atoms: _451  and  _454
REMARK  191  A    between atoms: _454  and  _455
REMARK  192  A    between atoms: _458  and  _460
REMARK  193  A    between atoms: _460  and  _461
REMARK  194  A    between atoms: _460  and  _463
REMARK  195  A    between atoms: _463  and  _464
REMARK  196  A    between atoms: _469  and  _471
REMARK  197  A    between atoms: _471  and  _472
REMARK  198  A    between atoms: _471  and  _474
REMARK  199  A    between atoms: _474  and  _475
REMARK  200  A    between atoms: _475  and  _476
REMARK  201  A    between atoms: _481  and  _483
REMARK  202  A    between atoms: _483  and  _484
REMARK  203  A    between atoms: _483  and  _486
REMARK  204  A    between atoms: _486  and  _487
REMARK  205  A    between atoms: _493  and  _495
REMARK  206  A    between atoms: _495  and  _496
REMARK  207  A    between atoms: _495  and  _498
REMARK  208  A    between atoms: _498  and  _499
REMARK  209  A    between atoms: _502  and  _504
REMARK  210  A    between atoms: _504  and  _505
REMARK  211  A    between atoms: _504  and  _507
REMARK  212  A    between atoms: _507  and  _508
REMARK  213  A    between atoms: _514  and  _516
REMARK  214  A    between atoms: _516  and  _517
REMARK  215  A    between atoms: _516  and  _519
REMARK  216  A    between atoms: _519  and  _520
REMARK  217  A    between atoms: _523  and  _525
REMARK  218  A    between atoms: _525  and  _526
REMARK  219  A    between atoms: _525  and  _528
REMARK  220  A    between atoms: _528  and  _529
REMARK  221  A    between atoms: _532  and  _534
REMARK  222  A    between atoms: _534  and  _535
REMARK  223  A    between atoms: _534  and  _537
REMARK  224  A    between atoms: _540  and  _542
REMARK  225  A    between atoms: _542  and  _543
REMARK  226  A    between atoms: _542  and  _545
REMARK  227  A    between atoms: _545  and  _546
REMARK  228  A    between atoms: _549  and  _551
REMARK  229  A    between atoms: _551  and  _552
REMARK  230  A    between atoms: _551  and  _554
REMARK  231  A    between atoms: _554  and  _555
REMARK  232  A    between atoms: _562  and  _563
REMARK  233  A    between atoms: _568  and  _570
REMARK  234  A    between atoms: _570  and  _571
REMARK  235  A    between atoms: _570  and  _573
REMARK  236  A    between atoms: _573  and  _574
REMARK  237  A    between atoms: _574  and  _575
REMARK  238  A    between atoms: _577  and  _579
REMARK  239  A    between atoms: _579  and  _580
REMARK  240  A    between atoms: _579  and  _582
REMARK  241  A    between atoms: _582  and  _583
REMARK  242  A    between atoms: _583  and  _584
REMARK  243  A    between atoms: _586  and  _588
REMARK  244  A    between atoms: _588  and  _589
REMARK  245  A    between atoms: _592  and  _594
REMARK  246  A    between atoms: _594  and  _595
REMARK  247  A    between atoms: _594  and  _597
REMARK  248  A    between atoms: _597  and  _598
REMARK  249  A    between atoms: _601  and  _603
REMARK  250  A    between atoms: _603  and  _604
REMARK  251  A    between atoms: _603  and  _606
REMARK  252  A    between atoms: _606  and  _607
REMARK  253  A    between atoms: _610  and  _612
REMARK  254  A    between atoms: _612  and  _613
REMARK  255  A    between atoms: _612  and  _615
REMARK  256  A    between atoms: _615  and  _616
REMARK  257  A    between atoms: _618  and  _620
REMARK  258  A    between atoms: _620  and  _621
REMARK  259  A    between atoms: _620  and  _623
REMARK  260  A    between atoms: _626  and  _628
REMARK  261  A    between atoms: _628  and  _629
REMARK  262  A    between atoms: _628  and  _631
REMARK  263  A    between atoms: _631  and  _632
REMARK  264  A    between atoms: _632  and  _633
REMARK  265  A    between atoms: _638  and  _640
REMARK  266  A    between atoms: _640  and  _641
REMARK  267  A    between atoms: _640  and  _643
REMARK  268  A    between atoms: _647  and  _648
REMARK  269  A    between atoms: _653  and  _655
REMARK  270  A    between atoms: _655  and  _656
REMARK  271  A    between atoms: _655  and  _658
REMARK  272  A    between atoms: _658  and  _659
REMARK                            x       y       z     vdW  Elec       q    Type
REMARK                         _______ _______ _______ _____ _____    ______ ____
ROOT
ATOM      1  O   HOH     1      23.164   9.514   5.807  0.00  0.00    +0.000 OA
ENDROOT
TORSDOF 0
REMARK  Name = ../refined-set-2016/3b65/3b65_pocket.pdb
REMARK  272 active torsions:
REMARK  status: ('A' for Active; 'I' for Inactive)
REMARK    1  A    between atoms: _1  and  _3
REMARK    2  A    between atoms: _3  and  _4
REMARK    3  A    between atoms: _3  and  _6
REMARK    4  A    between atoms: _9  and  _11
REMARK    5  A    between atoms: _11  and  _12
REMARK    6  A    between atoms: _15  and  _17
REMARK    7  A    between atoms: _17  and  _18
REMARK    8  A    between atoms: _17  and  _20
REMARK    9  A    between atoms: _20  and  _21
REMARK   10  A    between atoms: _27  and  _29
REMARK   11  A    between atoms: _29  and  _30
REMARK   12  A    between atoms: _29  and  _32
REMARK   13  A    between atoms: _32  and  _33
REMARK   14  A    between atoms: _36  and  _38
REMARK   15  A    between atoms: _38  and  _39
REMARK   16  A    between atoms: _38  and  _41
REMARK   17  A    between atoms: _41  and  _42
REMARK   18  A    between atoms: _45  and  _47
REMARK   19  A    between atoms: _47  and  _48
REMARK   20  A    between atoms: _47  and  _50
REMARK   21  A    between atoms: _50  and  _51
REMARK   22  A    between atoms: _53  and  _55
REMARK   23  A    between atoms: _55  and  _56
REMARK   24  A    between atoms: _55  and  _58
REMARK   25  A    between atoms: _58  and  _59
REMARK   26  A    between atoms: _61  and  _63
REMARK   27  A    between atoms: _63  and  _64
REMARK   28  A    between atoms: _63  and  _66
REMARK   29  A    between atoms: _66  and  _67
REMARK   30  A    between atoms: _70  and  _72
REMARK   31  A    between atoms: _72  and  _73
REMARK   32  A    between atoms: _72  and  _75
REMARK   33  A    between atoms: _75  and  _76
REMARK   34  A    between atoms: _81  and  _83
REMARK   35  A    between atoms: _83  and  _84
REMARK   36  A    between atoms: _83  and  _86
REMARK   37  A    between atoms: _86  and  _87
REMARK   38  A    between atoms: _87  and  _88
REMARK   39  A    between atoms: _91  and  _93
REMARK   40  A    between atoms: _93  and  _94
REMARK   41  A    between atoms: _93  and  _96
REMARK   42  A    between atoms: _96  and  _97
REMARK   43  A    between atoms: _100  and  _102
REMARK   44  A    between atoms: _102  and  _103
REMARK   45  A    between atoms: _105  and  _107
REMARK   46  A    between atoms: _107  and  _108
REMARK   47  A    between atoms: _107  and  _110
REMARK   48  A    between atoms: _110  and  _111
REMARK   49  A    between atoms: _111  and  _112
REMARK   50  A    between atoms: _115  and  _117
REMARK   51  A    between atoms: _117  and  _118
REMARK   52  A    between atoms: _117  and  _120
REMARK   53  A    between atoms: _120  and  _121
REMARK   54  A    between atoms: _121  and  _122
REMARK   55  A    between atoms: _122  and  _123
REMARK   56  A    between atoms: _132  and  _134
REMARK   57  A    between atoms: _134  and  _135
REMARK   58  A    between atoms: _134  and  _137
REMARK   59  A    between atoms: _137  and  _138
REMARK   60  A    between atoms: _138  and  _139
REMARK   61  A    between atoms: _144  and  _146
REMARK   62  A    between atoms: _146  and  _147
REMARK   63  A    between atoms: _146  and  _149
REMARK   64  A    between atoms: _149  and  _150
REMARK   65  A    between atoms: _153  and  _155
REMARK   66  A    between atoms: _155  and  _156
REMARK   67  A    between atoms: _155  and  _158
REMARK   68  A    between atoms: _158  and  _159
REMARK   69  A    between atoms: _162  and  _164
REMARK   70  A    between atoms: _164  and  _165
REMARK   71  A    between atoms: _164  and  _167
REMARK   72  A    between atoms: _167  and  _168
REMARK   73  A    between atoms: _168  and  _169
REMARK   74  A    between atoms: _174  and  _176
REMARK   75  A    between atoms: _176  and  _177
REMARK   76  A    between atoms: _176  and  _179
REMARK   77  A    between atoms: _179  and  _180
REMARK   78  A    between atoms: _185  and  _186
REMARK   79  A    between atoms: _188  and  _190
REMARK   80  A    between atoms: _190  and  _191
REMARK   81  A    between atoms: _190  and  _193
REMARK   82  A    between atoms: _193  and  _194
REMARK   83  A    between atoms: _196  and  _198
REMARK   84  A    between atoms: _198  and  _199
REMARK   85  A    between atoms: _198  and  _201
REMARK   86  A    between atoms: _201  and  _202
REMARK   87  A    between atoms: _212  and  _214
REMARK   88  A    between atoms: _214  and  _215
REMARK   89  A    between atoms: _214  and  _217
REMARK   90  A    between atoms: _217  and  _218
REMARK   91  A    between atoms: _218  and  _219
REMARK   92  A    between atoms: _221  and  _223
REMARK   93  A    between atoms: _223  and  _224
REMARK   94  A    between atoms: _226  and  _228
REMARK   95  A    between atoms: _228  and  _229
REMARK   96  A    between atoms: _228  and  _231
REMARK   97  A    between atoms: _231  and  _232
REMARK   98  A    between atoms: _235  and  _237
REMARK   99  A    between atoms: _237  and  _238
REMARK  100  A    between atoms: _237  and  _240
REMARK  101  A    between atoms: _240  and  _241
REMARK  102  A    between atoms: _241  and  _242
REMARK  103  A    between atoms: _244  and  _246
REMARK  104  A    between atoms: _246  and  _247
REMARK  105  A    between atoms: _246  and  _249
REMARK  106  A    between atoms: _252  and  _254
REMARK  107  A    between atoms: _254  and  _255
REMARK  108  A    between atoms: _254  and  _257
REMARK  109  A    between atoms: _257  and  _258
REMARK  110  A    between atoms: _264  and  _266
REMARK  111  A    between atoms: _266  and  _267
REMARK  112  A    between atoms: _270  and  _272
REMARK  113  A    between atoms: _272  and  _273
REMARK  114  A    between atoms: _272  and  _275
REMARK  115  A    between atoms: _275  and  _276
REMARK  116  A    between atoms: _276  and  _277
REMARK  117  A    between atoms: _279  and  _281
REMARK  118  A    between atoms: _281  and  _282
REMARK  119  A    between atoms: _284  and  _286
REMARK  120  A    between atoms: _286  and  _287
REMARK  121  A    between atoms: _286  and  _289
REMARK  122  A    between atoms: _289  and  _290
REMARK  123  A    between atoms: _290  and  _291
REMARK  124  A    between atoms: _291  and  _292
REMARK  125  A    between atoms: _301  and  _303
REMARK  126  A    between atoms: _303  and  _304
REMARK  127  A    between atoms: _303  and  _306
REMARK  128  A    between atoms: _306  and  _307
REMARK  129  A    between atoms: _309  and  _311
REMARK  130  A    between atoms: _311  and  _312
REMARK  131  A    between atoms: _311  and  _314
REMARK  132  A    between atoms: _314  and  _315
REMARK  133  A    between atoms: _318  and  _320
REMARK  134  A    between atoms: _320  and  _321
REMARK  135  A    between atoms: _320  and  _323
REMARK  136  A    between atoms: _323  and  _324
REMARK  137  A    between atoms: _329  and  _330
REMARK  138  A    between atoms: _332  and  _334
REMARK  139  A    between atoms: _334  and  _335
REMARK  140  A    between atoms: _334  and  _337
REMARK  141  A    between atoms: _337  and  _338
REMARK  142  A    between atoms: _344  and  _346
REMARK  143  A    between atoms: _346  and  _347
REMARK  144  A    between atoms: _350  and  _352
REMARK  145  A    between atoms: _352  and  _353
REMARK  146  A    between atoms: _352  and  _355
REMARK  147  A    between atoms: _355  and  _356
REMARK  148  A    between atoms: _359  and  _361
REMARK  149  A    between atoms: _361  and  _362
REMARK  150  A    between atoms: _361  and  _364
REMARK  151  A    between atoms: _364  and  _365
REMARK  152  A    between atoms: _371  and  _373
REMARK  153  A    between atoms: _373  and  _374
REMARK  154  A    between atoms: _373  and  _376
REMARK  155  A    between atoms: _376  and  _377
REMARK  156  A    between atoms: _379  and  _381
REMARK  157  A    between atoms: _381  and  _382
REMARK  158  A    between atoms: _381  and  _384
REMARK  159  A    between atoms: _384  and  _385
REMARK  160  A    between atoms: _385  and  _386
REMARK  161  A    between atoms: _388  and  _390
REMARK  162  A    between atoms: _390  and  _391
REMARK  163  A    between atoms: _390  and  _393
REMARK  164  A    between atoms: _393  and  _394
REMARK  165  A    between atoms: _394  and  _395
REMARK  166  A    between atoms: _400  and  _402
REMARK  167  A    between atoms: _402  and  _403
REMARK  168  A    between atoms: _402  and  _405
REMARK  169  A    between atoms: _407  and  _409
REMARK  170  A    between atoms: _409  and  _410
REMARK  171  A    between atoms: _409  and  _412
REMARK  172  A    between atoms: _412  and  _413
REMARK  173  A    between atoms: _413  and  _414
REMARK  174  A    between atoms: _416  and  _418
REMARK  175  A    between atoms: _418  and  _419
REMARK  176  A    between atoms: _418  and  _421
REMARK  177  A    between atoms: _421  and  _422
REMARK  178  A    between atoms: _425  and  _427
REMARK  179  A    between atoms: _427  and  _428
REMARK  180  A    between atoms: _427  and  _430
REMARK  181  A    between atoms: _430  and  _431
REMARK  182  A    between atoms: _434  and  _436
REMARK  183  A    between atoms: _436  and  _437
REMARK  184  A    between atoms: _436  and  _439
REMARK  185  A    between atoms: _439  and  _440
REMARK  186  A    between atoms: _443  and  _445
REMARK  187  A    between atoms: _445  and  _446
REMARK  188  A    between atoms: _449  and  _451
REMARK  189  A    between atoms: _451  and  _452
REMARK  190  A    between atoms: _451  and  _454
REMARK  191  A    between atoms: _454  and  _455
REMARK  192  A    between atoms: _458  and  _460
REMARK  193  A    between atoms: _460  and  _461
REMARK  194  A    between atoms: _460  and  _463
REMARK  195  A    between atoms: _463  and  _464
REMARK  196  A    between atoms: _469  and  _471
REMARK  197  A    between atoms: _471  and  _472
REMARK  198  A    between atoms: _471  and  _474
REMARK  199  A    between atoms: _474  and  _475
REMARK  200  A    between atoms: _475  and  _476
REMARK  201  A    between atoms: _481  and  _483
REMARK  202  A    between atoms: _483  and  _484
REMARK  203  A    between atoms: _483  and  _486
REMARK  204  A    between atoms: _486  and  _487
REMARK  205  A    between atoms: _493  and  _495
REMARK  206  A    between atoms: _495  and  _496
REMARK  207  A    between atoms: _495  and  _498
REMARK  208  A    between atoms: _498  and  _499
REMARK  209  A    between atoms: _502  and  _504
REMARK  210  A    between atoms: _504  and  _505
REMARK  211  A    between atoms: _504  and  _507
REMARK  212  A    between atoms: _507  and  _508
REMARK  213  A    between atoms: _514  and  _516
REMARK  214  A    between atoms: _516  and  _517
REMARK  215  A    between atoms: _516  and  _519
REMARK  216  A    between atoms: _519  and  _520
REMARK  217  A    between atoms: _523  and  _525
REMARK  218  A    between atoms: _525  and  _526
REMARK  219  A    between atoms: _525  and  _528
REMARK  220  A    between atoms: _528  and  _529
REMARK  221  A    between atoms: _532  and  _534
REMARK  222  A    between atoms: _534  and  _535
REMARK  223  A    between atoms: _534  and  _537
REMARK  224  A    between atoms: _540  and  _542
REMARK  225  A    between atoms: _542  and  _543
REMARK  226  A    between atoms: _542  and  _545
REMARK  227  A    between atoms: _545  and  _546
REMARK  228  A    between atoms: _549  and  _551
REMARK  229  A    between atoms: _551  and  _552
REMARK  230  A    between atoms: _551  and  _554
REMARK  231  A    between atoms: _554  and  _555
REMARK  232  A    between atoms: _562  and  _563
REMARK  233  A    between atoms: _568  and  _570
REMARK  234  A    between atoms: _570  and  _571
REMARK  235  A    between atoms: _570  and  _573
REMARK  236  A    between atoms: _573  and  _574
REMARK  237  A    between atoms: _574  and  _575
REMARK  238  A    between atoms: _577  and  _579
REMARK  239  A    between atoms: _579  and  _580
REMARK  240  A    between atoms: _579  and  _582
REMARK  241  A    between atoms: _582  and  _583
REMARK  242  A    between atoms: _583  and  _584
REMARK  243  A    between atoms: _586  and  _588
REMARK  244  A    between atoms: _588  and  _589
REMARK  245  A    between atoms: _592  and  _594
REMARK  246  A    between atoms: _594  and  _595
REMARK  247  A    between atoms: _594  and  _597
REMARK  248  A    between atoms: _597  and  _598
REMARK  249  A    between atoms: _601  and  _603
REMARK  250  A    between atoms: _603  and  _604
REMARK  251  A    between atoms: _603  and  _606
REMARK  252  A    between atoms: _606  and  _607
REMARK  253  A    between atoms: _610  and  _612
REMARK  254  A    between atoms: _612  and  _613
REMARK  255  A    between atoms: _612  and  _615
REMARK  256  A    between atoms: _615  and  _616
REMARK  257  A    between atoms: _618  and  _620
REMARK  258  A    between atoms: _620  and  _621
REMARK  259  A    between atoms: _620  and  _623
REMARK  260  A    between atoms: _626  and  _628
REMARK  261  A    between atoms: _628  and  _629
REMARK  262  A    between atoms: _628  and  _631
REMARK  263  A    between atoms: _631  and  _632
REMARK  264  A    between atoms: _632  and  _633
REMARK  265  A    between atoms: _638  and  _640
REMARK  266  A    between atoms: _640  and  _641
REMARK  267  A    between atoms: _640  and  _643
REMARK  268  A    between atoms: _647  and  _648
REMARK  269  A    between atoms: _653  and  _655
REMARK  270  A    between atoms: _655  and  _656
REMARK  271  A    between atoms: _655  and  _658
REMARK  272  A    between atoms: _658  and  _659
REMARK                            x       y       z     vdW  Elec       q    Type
REMARK                         _______ _______ _______ _____ _____    ______ ____
ROOT
ATOM      1  O   HOH     1      26.129  12.284   1.787  0.00  0.00    +0.000 OA
ENDROOT
TORSDOF 0
REMARK  Name = ../refined-set-2016/3b65/3b65_pocket.pdb
REMARK  272 active torsions:
REMARK  status: ('A' for Active; 'I' for Inactive)
REMARK    1  A    between atoms: _1  and  _3
REMARK    2  A    between atoms: _3  and  _4
REMARK    3  A    between atoms: _3  and  _6
REMARK    4  A    between atoms: _9  and  _11
REMARK    5  A    between atoms: _11  and  _12
REMARK    6  A    between atoms: _15  and  _17
REMARK    7  A    between atoms: _17  and  _18
REMARK    8  A    between atoms: _17  and  _20
REMARK    9  A    between atoms: _20  and  _21
REMARK   10  A    between atoms: _27  and  _29
REMARK   11  A    between atoms: _29  and  _30
REMARK   12  A    between atoms: _29  and  _32
REMARK   13  A    between atoms: _32  and  _33
REMARK   14  A    between atoms: _36  and  _38
REMARK   15  A    between atoms: _38  and  _39
REMARK   16  A    between atoms: _38  and  _41
REMARK   17  A    between atoms: _41  and  _42
REMARK   18  A    between atoms: _45  and  _47
REMARK   19  A    between atoms: _47  and  _48
REMARK   20  A    between atoms: _47  and  _50
REMARK   21  A    between atoms: _50  and  _51
REMARK   22  A    between atoms: _53  and  _55
REMARK   23  A    between atoms: _55  and  _56
REMARK   24  A    between atoms: _55  and  _58
REMARK   25  A    between atoms: _58  and  _59
REMARK   26  A    between atoms: _61  and  _63
REMARK   27  A    between atoms: _63  and  _64
REMARK   28  A    between atoms: _63  and  _66
REMARK   29  A    between atoms: _66  and  _67
REMARK   30  A    between atoms: _70  and  _72
REMARK   31  A    between atoms: _72  and  _73
REMARK   32  A    between atoms: _72  and  _75
REMARK   33  A    between atoms: _75  and  _76
REMARK   34  A    between atoms: _81  and  _83
REMARK   35  A    between atoms: _83  and  _84
REMARK   36  A    between atoms: _83  and  _86
REMARK   37  A    between atoms: _86  and  _87
REMARK   38  A    between atoms: _87  and  _88
REMARK   39  A    between atoms: _91  and  _93
REMARK   40  A    between atoms: _93  and  _94
REMARK   41  A    between atoms: _93  and  _96
REMARK   42  A    between atoms: _96  and  _97
REMARK   43  A    between atoms: _100  and  _102
REMARK   44  A    between atoms: _102  and  _103
REMARK   45  A    between atoms: _105  and  _107
REMARK   46  A    between atoms: _107  and  _108
REMARK   47  A    between atoms: _107  and  _110
REMARK   48  A    between atoms: _110  and  _111
REMARK   49  A    between atoms: _111  and  _112
REMARK   50  A    between atoms: _115  and  _117
REMARK   51  A    between atoms: _117  and  _118
REMARK   52  A    between atoms: _117  and  _120
REMARK   53  A    between atoms: _120  and  _121
REMARK   54  A    between atoms: _121  and  _122
REMARK   55  A    between atoms: _122  and  _123
REMARK   56  A    between atoms: _132  and  _134
REMARK   57  A    between atoms: _134  and  _135
REMARK   58  A    between atoms: _134  and  _137
REMARK   59  A    between atoms: _137  and  _138
REMARK   60  A    between atoms: _138  and  _139
REMARK   61  A    between atoms: _144  and  _146
REMARK   62  A    between atoms: _146  and  _147
REMARK   63  A    between atoms: _146  and  _149
REMARK   64  A    between atoms: _149  and  _150
REMARK   65  A    between atoms: _153  and  _155
REMARK   66  A    between atoms: _155  and  _156
REMARK   67  A    between atoms: _155  and  _158
REMARK   68  A    between atoms: _158  and  _159
REMARK   69  A    between atoms: _162  and  _164
REMARK   70  A    between atoms: _164  and  _165
REMARK   71  A    between atoms: _164  and  _167
REMARK   72  A    between atoms: _167  and  _168
REMARK   73  A    between atoms: _168  and  _169
REMARK   74  A    between atoms: _174  and  _176
REMARK   75  A    between atoms: _176  and  _177
REMARK   76  A    between atoms: _176  and  _179
REMARK   77  A    between atoms: _179  and  _180
REMARK   78  A    between atoms: _185  and  _186
REMARK   79  A    between atoms: _188  and  _190
REMARK   80  A    between atoms: _190  and  _191
REMARK   81  A    between atoms: _190  and  _193
REMARK   82  A    between atoms: _193  and  _194
REMARK   83  A    between atoms: _196  and  _198
REMARK   84  A    between atoms: _198  and  _199
REMARK   85  A    between atoms: _198  and  _201
REMARK   86  A    between atoms: _201  and  _202
REMARK   87  A    between atoms: _212  and  _214
REMARK   88  A    between atoms: _214  and  _215
REMARK   89  A    between atoms: _214  and  _217
REMARK   90  A    between atoms: _217  and  _218
REMARK   91  A    between atoms: _218  and  _219
REMARK   92  A    between atoms: _221  and  _223
REMARK   93  A    between atoms: _223  and  _224
REMARK   94  A    between atoms: _226  and  _228
REMARK   95  A    between atoms: _228  and  _229
REMARK   96  A    between atoms: _228  and  _231
REMARK   97  A    between atoms: _231  and  _232
REMARK   98  A    between atoms: _235  and  _237
REMARK   99  A    between atoms: _237  and  _238
REMARK  100  A    between atoms: _237  and  _240
REMARK  101  A    between atoms: _240  and  _241
REMARK  102  A    between atoms: _241  and  _242
REMARK  103  A    between atoms: _244  and  _246
REMARK  104  A    between atoms: _246  and  _247
REMARK  105  A    between atoms: _246  and  _249
REMARK  106  A    between atoms: _252  and  _254
REMARK  107  A    between atoms: _254  and  _255
REMARK  108  A    between atoms: _254  and  _257
REMARK  109  A    between atoms: _257  and  _258
REMARK  110  A    between atoms: _264  and  _266
REMARK  111  A    between atoms: _266  and  _267
REMARK  112  A    between atoms: _270  and  _272
REMARK  113  A    between atoms: _272  and  _273
REMARK  114  A    between atoms: _272  and  _275
REMARK  115  A    between atoms: _275  and  _276
REMARK  116  A    between atoms: _276  and  _277
REMARK  117  A    between atoms: _279  and  _281
REMARK  118  A    between atoms: _281  and  _282
REMARK  119  A    between atoms: _284  and  _286
REMARK  120  A    between atoms: _286  and  _287
REMARK  121  A    between atoms: _286  and  _289
REMARK  122  A    between atoms: _289  and  _290
REMARK  123  A    between atoms: _290  and  _291
REMARK  124  A    between atoms: _291  and  _292
REMARK  125  A    between atoms: _301  and  _303
REMARK  126  A    between atoms: _303  and  _304
REMARK  127  A    between atoms: _303  and  _306
REMARK  128  A    between atoms: _306  and  _307
REMARK  129  A    between atoms: _309  and  _311
REMARK  130  A    between atoms: _311  and  _312
REMARK  131  A    between atoms: _311  and  _314
REMARK  132  A    between atoms: _314  and  _315
REMARK  133  A    between atoms: _318  and  _320
REMARK  134  A    between atoms: _320  and  _321
REMARK  135  A    between atoms: _320  and  _323
REMARK  136  A    between atoms: _323  and  _324
REMARK  137  A    between atoms: _329  and  _330
REMARK  138  A    between atoms: _332  and  _334
REMARK  139  A    between atoms: _334  and  _335
REMARK  140  A    between atoms: _334  and  _337
REMARK  141  A    between atoms: _337  and  _338
REMARK  142  A    between atoms: _344  and  _346
REMARK  143  A    between atoms: _346  and  _347
REMARK  144  A    between atoms: _350  and  _352
REMARK  145  A    between atoms: _352  and  _353
REMARK  146  A    between atoms: _352  and  _355
REMARK  147  A    between atoms: _355  and  _356
REMARK  148  A    between atoms: _359  and  _361
REMARK  149  A    between atoms: _361  and  _362
REMARK  150  A    between atoms: _361  and  _364
REMARK  151  A    between atoms: _364  and  _365
REMARK  152  A    between atoms: _371  and  _373
REMARK  153  A    between atoms: _373  and  _374
REMARK  154  A    between atoms: _373  and  _376
REMARK  155  A    between atoms: _376  and  _377
REMARK  156  A    between atoms: _379  and  _381
REMARK  157  A    between atoms: _381  and  _382
REMARK  158  A    between atoms: _381  and  _384
REMARK  159  A    between atoms: _384  and  _385
REMARK  160  A    between atoms: _385  and  _386
REMARK  161  A    between atoms: _388  and  _390
REMARK  162  A    between atoms: _390  and  _391
REMARK  163  A    between atoms: _390  and  _393
REMARK  164  A    between atoms: _393  and  _394
REMARK  165  A    between atoms: _394  and  _395
REMARK  166  A    between atoms: _400  and  _402
REMARK  167  A    between atoms: _402  and  _403
REMARK  168  A    between atoms: _402  and  _405
REMARK  169  A    between atoms: _407  and  _409
REMARK  170  A    between atoms: _409  and  _410
REMARK  171  A    between atoms: _409  and  _412
REMARK  172  A    between atoms: _412  and  _413
REMARK  173  A    between atoms: _413  and  _414
REMARK  174  A    between atoms: _416  and  _418
REMARK  175  A    between atoms: _418  and  _419
REMARK  176  A    between atoms: _418  and  _421
REMARK  177  A    between atoms: _421  and  _422
REMARK  178  A    between atoms: _425  and  _427
REMARK  179  A    between atoms: _427  and  _428
REMARK  180  A    between atoms: _427  and  _430
REMARK  181  A    between atoms: _430  and  _431
REMARK  182  A    between atoms: _434  and  _436
REMARK  183  A    between atoms: _436  and  _437
REMARK  184  A    between atoms: _436  and  _439
REMARK  185  A    between atoms: _439  and  _440
REMARK  186  A    between atoms: _443  and  _445
REMARK  187  A    between atoms: _445  and  _446
REMARK  188  A    between atoms: _449  and  _451
REMARK  189  A    between atoms: _451  and  _452
REMARK  190  A    between atoms: _451  and  _454
REMARK  191  A    between atoms: _454  and  _455
REMARK  192  A    between atoms: _458  and  _460
REMARK  193  A    between atoms: _460  and  _461
REMARK  194  A    between atoms: _460  and  _463
REMARK  195  A    between atoms: _463  and  _464
REMARK  196  A    between atoms: _469  and  _471
REMARK  197  A    between atoms: _471  and  _472
REMARK  198  A    between atoms: _471  and  _474
REMARK  199  A    between atoms: _474  and  _475
REMARK  200  A    between atoms: _475  and  _476
REMARK  201  A    between atoms: _481  and  _483
REMARK  202  A    between atoms: _483  and  _484
REMARK  203  A    between atoms: _483  and  _486
REMARK  204  A    between atoms: _486  and  _487
REMARK  205  A    between atoms: _493  and  _495
REMARK  206  A    between atoms: _495  and  _496
REMARK  207  A    between atoms: _495  and  _498
REMARK  208  A    between atoms: _498  and  _499
REMARK  209  A    between atoms: _502  and  _504
REMARK  210  A    between atoms: _504  and  _505
REMARK  211  A    between atoms: _504  and  _507
REMARK  212  A    between atoms: _507  and  _508
REMARK  213  A    between atoms: _514  and  _516
REMARK  214  A    between atoms: _516  and  _517
REMARK  215  A    between atoms: _516  and  _519
REMARK  216  A    between atoms: _519  and  _520
REMARK  217  A    between atoms: _523  and  _525
REMARK  218  A    between atoms: _525  and  _526
REMARK  219  A    between atoms: _525  and  _528
REMARK  220  A    between atoms: _528  and  _529
REMARK  221  A    between atoms: _532  and  _534
REMARK  222  A    between atoms: _534  and  _535
REMARK  223  A    between atoms: _534  and  _537
REMARK  224  A    between atoms: _540  and  _542
REMARK  225  A    between atoms: _542  and  _543
REMARK  226  A    between atoms: _542  and  _545
REMARK  227  A    between atoms: _545  and  _546
REMARK  228  A    between atoms: _549  and  _551
REMARK  229  A    between atoms: _551  and  _552
REMARK  230  A    between atoms: _551  and  _554
REMARK  231  A    between atoms: _554  and  _555
REMARK  232  A    between atoms: _562  and  _563
REMARK  233  A    between atoms: _568  and  _570
REMARK  234  A    between atoms: _570  and  _571
REMARK  235  A    between atoms: _570  and  _573
REMARK  236  A    between atoms: _573  and  _574
REMARK  237  A    between atoms: _574  and  _575
REMARK  238  A    between atoms: _577  and  _579
REMARK  239  A    between atoms: _579  and  _580
REMARK  240  A    between atoms: _579  and  _582
REMARK  241  A    between atoms: _582  and  _583
REMARK  242  A    between atoms: _583  and  _584
REMARK  243  A    between atoms: _586  and  _588
REMARK  244  A    between atoms: _588  and  _589
REMARK  245  A    between atoms: _592  and  _594
REMARK  246  A    between atoms: _594  and  _595
REMARK  247  A    between atoms: _594  and  _597
REMARK  248  A    between atoms: _597  and  _598
REMARK  249  A    between atoms: _601  and  _603
REMARK  250  A    between atoms: _603  and  _604
REMARK  251  A    between atoms: _603  and  _606
REMARK  252  A    between atoms: _606  and  _607
REMARK  253  A    between atoms: _610  and  _612
REMARK  254  A    between atoms: _612  and  _613
REMARK  255  A    between atoms: _612  and  _615
REMARK  256  A    between atoms: _615  and  _616
REMARK  257  A    between atoms: _618  and  _620
REMARK  258  A    between atoms: _620  and  _621
REMARK  259  A    between atoms: _620  and  _623
REMARK  260  A    between atoms: _626  and  _628
REMARK  261  A    between atoms: _628  and  _629
REMARK  262  A    between atoms: _628  and  _631
REMARK  263  A    between atoms: _631  and  _632
REMARK  264  A    between atoms: _632  and  _633
REMARK  265  A    between atoms: _638  and  _640
REMARK  266  A    between atoms: _640  and  _641
REMARK  267  A    between atoms: _640  and  _643
REMARK  268  A    between atoms: _647  and  _648
REMARK  269  A    between atoms: _653  and  _655
REMARK  270  A    between atoms: _655  and  _656
REMARK  271  A    between atoms: _655  and  _658
REMARK  272  A    between atoms: _658  and  _659
REMARK                            x       y       z     vdW  Elec       q    Type
REMARK                         _______ _______ _______ _____ _____    ______ ____
ROOT
ATOM      1  O   HOH     1      37.840   3.768   1.002  0.00  0.00    +0.000 OA
ENDROOT
TORSDOF 0
REMARK  Name = ../refined-set-2016/3b65/3b65_pocket.pdb
REMARK  272 active torsions:
REMARK  status: ('A' for Active; 'I' for Inactive)
REMARK    1  A    between atoms: _1  and  _3
REMARK    2  A    between atoms: _3  and  _4
REMARK    3  A    between atoms: _3  and  _6
REMARK    4  A    between atoms: _9  and  _11
REMARK    5  A    between atoms: _11  and  _12
REMARK    6  A    between atoms: _15  and  _17
REMARK    7  A    between atoms: _17  and  _18
REMARK    8  A    between atoms: _17  and  _20
REMARK    9  A    between atoms: _20  and  _21
REMARK   10  A    between atoms: _27  and  _29
REMARK   11  A    between atoms: _29  and  _30
REMARK   12  A    between atoms: _29  and  _32
REMARK   13  A    between atoms: _32  and  _33
REMARK   14  A    between atoms: _36  and  _38
REMARK   15  A    between atoms: _38  and  _39
REMARK   16  A    between atoms: _38  and  _41
REMARK   17  A    between atoms: _41  and  _42
REMARK   18  A    between atoms: _45  and  _47
REMARK   19  A    between atoms: _47  and  _48
REMARK   20  A    between atoms: _47  and  _50
REMARK   21  A    between atoms: _50  and  _51
REMARK   22  A    between atoms: _53  and  _55
REMARK   23  A    between atoms: _55  and  _56
REMARK   24  A    between atoms: _55  and  _58
REMARK   25  A    between atoms: _58  and  _59
REMARK   26  A    between atoms: _61  and  _63
REMARK   27  A    between atoms: _63  and  _64
REMARK   28  A    between atoms: _63  and  _66
REMARK   29  A    between atoms: _66  and  _67
REMARK   30  A    between atoms: _70  and  _72
REMARK   31  A    between atoms: _72  and  _73
REMARK   32  A    between atoms: _72  and  _75
REMARK   33  A    between atoms: _75  and  _76
REMARK   34  A    between atoms: _81  and  _83
REMARK   35  A    between atoms: _83  and  _84
REMARK   36  A    between atoms: _83  and  _86
REMARK   37  A    between atoms: _86  and  _87
REMARK   38  A    between atoms: _87  and  _88
REMARK   39  A    between atoms: _91  and  _93
REMARK   40  A    between atoms: _93  and  _94
REMARK   41  A    between atoms: _93  and  _96
REMARK   42  A    between atoms: _96  and  _97
REMARK   43  A    between atoms: _100  and  _102
REMARK   44  A    between atoms: _102  and  _103
REMARK   45  A    between atoms: _105  and  _107
REMARK   46  A    between atoms: _107  and  _108
REMARK   47  A    between atoms: _107  and  _110
REMARK   48  A    between atoms: _110  and  _111
REMARK   49  A    between atoms: _111  and  _112
REMARK   50  A    between atoms: _115  and  _117
REMARK   51  A    between atoms: _117  and  _118
REMARK   52  A    between atoms: _117  and  _120
REMARK   53  A    between atoms: _120  and  _121
REMARK   54  A    between atoms: _121  and  _122
REMARK   55  A    between atoms: _122  and  _123
REMARK   56  A    between atoms: _132  and  _134
REMARK   57  A    between atoms: _134  and  _135
REMARK   58  A    between atoms: _134  and  _137
REMARK   59  A    between atoms: _137  and  _138
REMARK   60  A    between atoms: _138  and  _139
REMARK   61  A    between atoms: _144  and  _146
REMARK   62  A    between atoms: _146  and  _147
REMARK   63  A    between atoms: _146  and  _149
REMARK   64  A    between atoms: _149  and  _150
REMARK   65  A    between atoms: _153  and  _155
REMARK   66  A    between atoms: _155  and  _156
REMARK   67  A    between atoms: _155  and  _158
REMARK   68  A    between atoms: _158  and  _159
REMARK   69  A    between atoms: _162  and  _164
REMARK   70  A    between atoms: _164  and  _165
REMARK   71  A    between atoms: _164  and  _167
REMARK   72  A    between atoms: _167  and  _168
REMARK   73  A    between atoms: _168  and  _169
REMARK   74  A    between atoms: _174  and  _176
REMARK   75  A    between atoms: _176  and  _177
REMARK   76  A    between atoms: _176  and  _179
REMARK   77  A    between atoms: _179  and  _180
REMARK   78  A    between atoms: _185  and  _186
REMARK   79  A    between atoms: _188  and  _190
REMARK   80  A    between atoms: _190  and  _191
REMARK   81  A    between atoms: _190  and  _193
REMARK   82  A    between atoms: _193  and  _194
REMARK   83  A    between atoms: _196  and  _198
REMARK   84  A    between atoms: _198  and  _199
REMARK   85  A    between atoms: _198  and  _201
REMARK   86  A    between atoms: _201  and  _202
REMARK   87  A    between atoms: _212  and  _214
REMARK   88  A    between atoms: _214  and  _215
REMARK   89  A    between atoms: _214  and  _217
REMARK   90  A    between atoms: _217  and  _218
REMARK   91  A    between atoms: _218  and  _219
REMARK   92  A    between atoms: _221  and  _223
REMARK   93  A    between atoms: _223  and  _224
REMARK   94  A    between atoms: _226  and  _228
REMARK   95  A    between atoms: _228  and  _229
REMARK   96  A    between atoms: _228  and  _231
REMARK   97  A    between atoms: _231  and  _232
REMARK   98  A    between atoms: _235  and  _237
REMARK   99  A    between atoms: _237  and  _238
REMARK  100  A    between atoms: _237  and  _240
REMARK  101  A    between atoms: _240  and  _241
REMARK  102  A    between atoms: _241  and  _242
REMARK  103  A    between atoms: _244  and  _246
REMARK  104  A    between atoms: _246  and  _247
REMARK  105  A    between atoms: _246  and  _249
REMARK  106  A    between atoms: _252  and  _254
REMARK  107  A    between atoms: _254  and  _255
REMARK  108  A    between atoms: _254  and  _257
REMARK  109  A    between atoms: _257  and  _258
REMARK  110  A    between atoms: _264  and  _266
REMARK  111  A    between atoms: _266  and  _267
REMARK  112  A    between atoms: _270  and  _272
REMARK  113  A    between atoms: _272  and  _273
REMARK  114  A    between atoms: _272  and  _275
REMARK  115  A    between atoms: _275  and  _276
REMARK  116  A    between atoms: _276  and  _277
REMARK  117  A    between atoms: _279  and  _281
REMARK  118  A    between atoms: _281  and  _282
REMARK  119  A    between atoms: _284  and  _286
REMARK  120  A    between atoms: _286  and  _287
REMARK  121  A    between atoms: _286  and  _289
REMARK  122  A    between atoms: _289  and  _290
REMARK  123  A    between atoms: _290  and  _291
REMARK  124  A    between atoms: _291  and  _292
REMARK  125  A    between atoms: _301  and  _303
REMARK  126  A    between atoms: _303  and  _304
REMARK  127  A    between atoms: _303  and  _306
REMARK  128  A    between atoms: _306  and  _307
REMARK  129  A    between atoms: _309  and  _311
REMARK  130  A    between atoms: _311  and  _312
REMARK  131  A    between atoms: _311  and  _314
REMARK  132  A    between atoms: _314  and  _315
REMARK  133  A    between atoms: _318  and  _320
REMARK  134  A    between atoms: _320  and  _321
REMARK  135  A    between atoms: _320  and  _323
REMARK  136  A    between atoms: _323  and  _324
REMARK  137  A    between atoms: _329  and  _330
REMARK  138  A    between atoms: _332  and  _334
REMARK  139  A    between atoms: _334  and  _335
REMARK  140  A    between atoms: _334  and  _337
REMARK  141  A    between atoms: _337  and  _338
REMARK  142  A    between atoms: _344  and  _346
REMARK  143  A    between atoms: _346  and  _347
REMARK  144  A    between atoms: _350  and  _352
REMARK  145  A    between atoms: _352  and  _353
REMARK  146  A    between atoms: _352  and  _355
REMARK  147  A    between atoms: _355  and  _356
REMARK  148  A    between atoms: _359  and  _361
REMARK  149  A    between atoms: _361  and  _362
REMARK  150  A    between atoms: _361  and  _364
REMARK  151  A    between atoms: _364  and  _365
REMARK  152  A    between atoms: _371  and  _373
REMARK  153  A    between atoms: _373  and  _374
REMARK  154  A    between atoms: _373  and  _376
REMARK  155  A    between atoms: _376  and  _377
REMARK  156  A    between atoms: _379  and  _381
REMARK  157  A    between atoms: _381  and  _382
REMARK  158  A    between atoms: _381  and  _384
REMARK  159  A    between atoms: _384  and  _385
REMARK  160  A    between atoms: _385  and  _386
REMARK  161  A    between atoms: _388  and  _390
REMARK  162  A    between atoms: _390  and  _391
REMARK  163  A    between atoms: _390  and  _393
REMARK  164  A    between atoms: _393  and  _394
REMARK  165  A    between atoms: _394  and  _395
REMARK  166  A    between atoms: _400  and  _402
REMARK  167  A    between atoms: _402  and  _403
REMARK  168  A    between atoms: _402  and  _405
REMARK  169  A    between atoms: _407  and  _409
REMARK  170  A    between atoms: _409  and  _410
REMARK  171  A    between atoms: _409  and  _412
REMARK  172  A    between atoms: _412  and  _413
REMARK  173  A    between atoms: _413  and  _414
REMARK  174  A    between atoms: _416  and  _418
REMARK  175  A    between atoms: _418  and  _419
REMARK  176  A    between atoms: _418  and  _421
REMARK  177  A    between atoms: _421  and  _422
REMARK  178  A    between atoms: _425  and  _427
REMARK  179  A    between atoms: _427  and  _428
REMARK  180  A    between atoms: _427  and  _430
REMARK  181  A    between atoms: _430  and  _431
REMARK  182  A    between atoms: _434  and  _436
REMARK  183  A    between atoms: _436  and  _437
REMARK  184  A    between atoms: _436  and  _439
REMARK  185  A    between atoms: _439  and  _440
REMARK  186  A    between atoms: _443  and  _445
REMARK  187  A    between atoms: _445  and  _446
REMARK  188  A    between atoms: _449  and  _451
REMARK  189  A    between atoms: _451  and  _452
REMARK  190  A    between atoms: _451  and  _454
REMARK  191  A    between atoms: _454  and  _455
REMARK  192  A    between atoms: _458  and  _460
REMARK  193  A    between atoms: _460  and  _461
REMARK  194  A    between atoms: _460  and  _463
REMARK  195  A    between atoms: _463  and  _464
REMARK  196  A    between atoms: _469  and  _471
REMARK  197  A    between atoms: _471  and  _472
REMARK  198  A    between atoms: _471  and  _474
REMARK  199  A    between atoms: _474  and  _475
REMARK  200  A    between atoms: _475  and  _476
REMARK  201  A    between atoms: _481  and  _483
REMARK  202  A    between atoms: _483  and  _484
REMARK  203  A    between atoms: _483  and  _486
REMARK  204  A    between atoms: _486  and  _487
REMARK  205  A    between atoms: _493  and  _495
REMARK  206  A    between atoms: _495  and  _496
REMARK  207  A    between atoms: _495  and  _498
REMARK  208  A    between atoms: _498  and  _499
REMARK  209  A    between atoms: _502  and  _504
REMARK  210  A    between atoms: _504  and  _505
REMARK  211  A    between atoms: _504  and  _507
REMARK  212  A    between atoms: _507  and  _508
REMARK  213  A    between atoms: _514  and  _516
REMARK  214  A    between atoms: _516  and  _517
REMARK  215  A    between atoms: _516  and  _519
REMARK  216  A    between atoms: _519  and  _520
REMARK  217  A    between atoms: _523  and  _525
REMARK  218  A    between atoms: _525  and  _526
REMARK  219  A    between atoms: _525  and  _528
REMARK  220  A    between atoms: _528  and  _529
REMARK  221  A    between atoms: _532  and  _534
REMARK  222  A    between atoms: _534  and  _535
REMARK  223  A    between atoms: _534  and  _537
REMARK  224  A    between atoms: _540  and  _542
REMARK  225  A    between atoms: _542  and  _543
REMARK  226  A    between atoms: _542  and  _545
REMARK  227  A    between atoms: _545  and  _546
REMARK  228  A    between atoms: _549  and  _551
REMARK  229  A    between atoms: _551  and  _552
REMARK  230  A    between atoms: _551  and  _554
REMARK  231  A    between atoms: _554  and  _555
REMARK  232  A    between atoms: _562  and  _563
REMARK  233  A    between atoms: _568  and  _570
REMARK  234  A    between atoms: _570  and  _571
REMARK  235  A    between atoms: _570  and  _573
REMARK  236  A    between atoms: _573  and  _574
REMARK  237  A    between atoms: _574  and  _575
REMARK  238  A    between atoms: _577  and  _579
REMARK  239  A    between atoms: _579  and  _580
REMARK  240  A    between atoms: _579  and  _582
REMARK  241  A    between atoms: _582  and  _583
REMARK  242  A    between atoms: _583  and  _584
REMARK  243  A    between atoms: _586  and  _588
REMARK  244  A    between atoms: _588  and  _589
REMARK  245  A    between atoms: _592  and  _594
REMARK  246  A    between atoms: _594  and  _595
REMARK  247  A    between atoms: _594  and  _597
REMARK  248  A    between atoms: _597  and  _598
REMARK  249  A    between atoms: _601  and  _603
REMARK  250  A    between atoms: _603  and  _604
REMARK  251  A    between atoms: _603  and  _606
REMARK  252  A    between atoms: _606  and  _607
REMARK  253  A    between atoms: _610  and  _612
REMARK  254  A    between atoms: _612  and  _613
REMARK  255  A    between atoms: _612  and  _615
REMARK  256  A    between atoms: _615  and  _616
REMARK  257  A    between atoms: _618  and  _620
REMARK  258  A    between atoms: _620  and  _621
REMARK  259  A    between atoms: _620  and  _623
REMARK  260  A    between atoms: _626  and  _628
REMARK  261  A    between atoms: _628  and  _629
REMARK  262  A    between atoms: _628  and  _631
REMARK  263  A    between atoms: _631  and  _632
REMARK  264  A    between atoms: _632  and  _633
REMARK  265  A    between atoms: _638  and  _640
REMARK  266  A    between atoms: _640  and  _641
REMARK  267  A    between atoms: _640  and  _643
REMARK  268  A    between atoms: _647  and  _648
REMARK  269  A    between atoms: _653  and  _655
REMARK  270  A    between atoms: _655  and  _656
REMARK  271  A    between atoms: _655  and  _658
REMARK  272  A    between atoms: _658  and  _659
REMARK                            x       y       z     vdW  Elec       q    Type
REMARK                         _______ _______ _______ _____ _____    ______ ____
ROOT
ATOM      1  O   HOH     1      24.831  14.784   2.350  0.00  0.00    +0.000 OA
ENDROOT
TORSDOF 0
REMARK  Name = ../refined-set-2016/3b65/3b65_pocket.pdb
REMARK  272 active torsions:
REMARK  status: ('A' for Active; 'I' for Inactive)
REMARK    1  A    between atoms: _1  and  _3
REMARK    2  A    between atoms: _3  and  _4
REMARK    3  A    between atoms: _3  and  _6
REMARK    4  A    between atoms: _9  and  _11
REMARK    5  A    between atoms: _11  and  _12
REMARK    6  A    between atoms: _15  and  _17
REMARK    7  A    between atoms: _17  and  _18
REMARK    8  A    between atoms: _17  and  _20
REMARK    9  A    between atoms: _20  and  _21
REMARK   10  A    between atoms: _27  and  _29
REMARK   11  A    between atoms: _29  and  _30
REMARK   12  A    between atoms: _29  and  _32
REMARK   13  A    between atoms: _32  and  _33
REMARK   14  A    between atoms: _36  and  _38
REMARK   15  A    between atoms: _38  and  _39
REMARK   16  A    between atoms: _38  and  _41
REMARK   17  A    between atoms: _41  and  _42
REMARK   18  A    between atoms: _45  and  _47
REMARK   19  A    between atoms: _47  and  _48
REMARK   20  A    between atoms: _47  and  _50
REMARK   21  A    between atoms: _50  and  _51
REMARK   22  A    between atoms: _53  and  _55
REMARK   23  A    between atoms: _55  and  _56
REMARK   24  A    between atoms: _55  and  _58
REMARK   25  A    between atoms: _58  and  _59
REMARK   26  A    between atoms: _61  and  _63
REMARK   27  A    between atoms: _63  and  _64
REMARK   28  A    between atoms: _63  and  _66
REMARK   29  A    between atoms: _66  and  _67
REMARK   30  A    between atoms: _70  and  _72
REMARK   31  A    between atoms: _72  and  _73
REMARK   32  A    between atoms: _72  and  _75
REMARK   33  A    between atoms: _75  and  _76
REMARK   34  A    between atoms: _81  and  _83
REMARK   35  A    between atoms: _83  and  _84
REMARK   36  A    between atoms: _83  and  _86
REMARK   37  A    between atoms: _86  and  _87
REMARK   38  A    between atoms: _87  and  _88
REMARK   39  A    between atoms: _91  and  _93
REMARK   40  A    between atoms: _93  and  _94
REMARK   41  A    between atoms: _93  and  _96
REMARK   42  A    between atoms: _96  and  _97
REMARK   43  A    between atoms: _100  and  _102
REMARK   44  A    between atoms: _102  and  _103
REMARK   45  A    between atoms: _105  and  _107
REMARK   46  A    between atoms: _107  and  _108
REMARK   47  A    between atoms: _107  and  _110
REMARK   48  A    between atoms: _110  and  _111
REMARK   49  A    between atoms: _111  and  _112
REMARK   50  A    between atoms: _115  and  _117
REMARK   51  A    between atoms: _117  and  _118
REMARK   52  A    between atoms: _117  and  _120
REMARK   53  A    between atoms: _120  and  _121
REMARK   54  A    between atoms: _121  and  _122
REMARK   55  A    between atoms: _122  and  _123
REMARK   56  A    between atoms: _132  and  _134
REMARK   57  A    between atoms: _134  and  _135
REMARK   58  A    between atoms: _134  and  _137
REMARK   59  A    between atoms: _137  and  _138
REMARK   60  A    between atoms: _138  and  _139
REMARK   61  A    between atoms: _144  and  _146
REMARK   62  A    between atoms: _146  and  _147
REMARK   63  A    between atoms: _146  and  _149
REMARK   64  A    between atoms: _149  and  _150
REMARK   65  A    between atoms: _153  and  _155
REMARK   66  A    between atoms: _155  and  _156
REMARK   67  A    between atoms: _155  and  _158
REMARK   68  A    between atoms: _158  and  _159
REMARK   69  A    between atoms: _162  and  _164
REMARK   70  A    between atoms: _164  and  _165
REMARK   71  A    between atoms: _164  and  _167
REMARK   72  A    between atoms: _167  and  _168
REMARK   73  A    between atoms: _168  and  _169
REMARK   74  A    between atoms: _174  and  _176
REMARK   75  A    between atoms: _176  and  _177
REMARK   76  A    between atoms: _176  and  _179
REMARK   77  A    between atoms: _179  and  _180
REMARK   78  A    between atoms: _185  and  _186
REMARK   79  A    between atoms: _188  and  _190
REMARK   80  A    between atoms: _190  and  _191
REMARK   81  A    between atoms: _190  and  _193
REMARK   82  A    between atoms: _193  and  _194
REMARK   83  A    between atoms: _196  and  _198
REMARK   84  A    between atoms: _198  and  _199
REMARK   85  A    between atoms: _198  and  _201
REMARK   86  A    between atoms: _201  and  _202
REMARK   87  A    between atoms: _212  and  _214
REMARK   88  A    between atoms: _214  and  _215
REMARK   89  A    between atoms: _214  and  _217
REMARK   90  A    between atoms: _217  and  _218
REMARK   91  A    between atoms: _218  and  _219
REMARK   92  A    between atoms: _221  and  _223
REMARK   93  A    between atoms: _223  and  _224
REMARK   94  A    between atoms: _226  and  _228
REMARK   95  A    between atoms: _228  and  _229
REMARK   96  A    between atoms: _228  and  _231
REMARK   97  A    between atoms: _231  and  _232
REMARK   98  A    between atoms: _235  and  _237
REMARK   99  A    between atoms: _237  and  _238
REMARK  100  A    between atoms: _237  and  _240
REMARK  101  A    between atoms: _240  and  _241
REMARK  102  A    between atoms: _241  and  _242
REMARK  103  A    between atoms: _244  and  _246
REMARK  104  A    between atoms: _246  and  _247
REMARK  105  A    between atoms: _246  and  _249
REMARK  106  A    between atoms: _252  and  _254
REMARK  107  A    between atoms: _254  and  _255
REMARK  108  A    between atoms: _254  and  _257
REMARK  109  A    between atoms: _257  and  _258
REMARK  110  A    between atoms: _264  and  _266
REMARK  111  A    between atoms: _266  and  _267
REMARK  112  A    between atoms: _270  and  _272
REMARK  113  A    between atoms: _272  and  _273
REMARK  114  A    between atoms: _272  and  _275
REMARK  115  A    between atoms: _275  and  _276
REMARK  116  A    between atoms: _276  and  _277
REMARK  117  A    between atoms: _279  and  _281
REMARK  118  A    between atoms: _281  and  _282
REMARK  119  A    between atoms: _284  and  _286
REMARK  120  A    between atoms: _286  and  _287
REMARK  121  A    between atoms: _286  and  _289
REMARK  122  A    between atoms: _289  and  _290
REMARK  123  A    between atoms: _290  and  _291
REMARK  124  A    between atoms: _291  and  _292
REMARK  125  A    between atoms: _301  and  _303
REMARK  126  A    between atoms: _303  and  _304
REMARK  127  A    between atoms: _303  and  _306
REMARK  128  A    between atoms: _306  and  _307
REMARK  129  A    between atoms: _309  and  _311
REMARK  130  A    between atoms: _311  and  _312
REMARK  131  A    between atoms: _311  and  _314
REMARK  132  A    between atoms: _314  and  _315
REMARK  133  A    between atoms: _318  and  _320
REMARK  134  A    between atoms: _320  and  _321
REMARK  135  A    between atoms: _320  and  _323
REMARK  136  A    between atoms: _323  and  _324
REMARK  137  A    between atoms: _329  and  _330
REMARK  138  A    between atoms: _332  and  _334
REMARK  139  A    between atoms: _334  and  _335
REMARK  140  A    between atoms: _334  and  _337
REMARK  141  A    between atoms: _337  and  _338
REMARK  142  A    between atoms: _344  and  _346
REMARK  143  A    between atoms: _346  and  _347
REMARK  144  A    between atoms: _350  and  _352
REMARK  145  A    between atoms: _352  and  _353
REMARK  146  A    between atoms: _352  and  _355
REMARK  147  A    between atoms: _355  and  _356
REMARK  148  A    between atoms: _359  and  _361
REMARK  149  A    between atoms: _361  and  _362
REMARK  150  A    between atoms: _361  and  _364
REMARK  151  A    between atoms: _364  and  _365
REMARK  152  A    between atoms: _371  and  _373
REMARK  153  A    between atoms: _373  and  _374
REMARK  154  A    between atoms: _373  and  _376
REMARK  155  A    between atoms: _376  and  _377
REMARK  156  A    between atoms: _379  and  _381
REMARK  157  A    between atoms: _381  and  _382
REMARK  158  A    between atoms: _381  and  _384
REMARK  159  A    between atoms: _384  and  _385
REMARK  160  A    between atoms: _385  and  _386
REMARK  161  A    between atoms: _388  and  _390
REMARK  162  A    between atoms: _390  and  _391
REMARK  163  A    between atoms: _390  and  _393
REMARK  164  A    between atoms: _393  and  _394
REMARK  165  A    between atoms: _394  and  _395
REMARK  166  A    between atoms: _400  and  _402
REMARK  167  A    between atoms: _402  and  _403
REMARK  168  A    between atoms: _402  and  _405
REMARK  169  A    between atoms: _407  and  _409
REMARK  170  A    between atoms: _409  and  _410
REMARK  171  A    between atoms: _409  and  _412
REMARK  172  A    between atoms: _412  and  _413
REMARK  173  A    between atoms: _413  and  _414
REMARK  174  A    between atoms: _416  and  _418
REMARK  175  A    between atoms: _418  and  _419
REMARK  176  A    between atoms: _418  and  _421
REMARK  177  A    between atoms: _421  and  _422
REMARK  178  A    between atoms: _425  and  _427
REMARK  179  A    between atoms: _427  and  _428
REMARK  180  A    between atoms: _427  and  _430
REMARK  181  A    between atoms: _430  and  _431
REMARK  182  A    between atoms: _434  and  _436
REMARK  183  A    between atoms: _436  and  _437
REMARK  184  A    between atoms: _436  and  _439
REMARK  185  A    between atoms: _439  and  _440
REMARK  186  A    between atoms: _443  and  _445
REMARK  187  A    between atoms: _445  and  _446
REMARK  188  A    between atoms: _449  and  _451
REMARK  189  A    between atoms: _451  and  _452
REMARK  190  A    between atoms: _451  and  _454
REMARK  191  A    between atoms: _454  and  _455
REMARK  192  A    between atoms: _458  and  _460
REMARK  193  A    between atoms: _460  and  _461
REMARK  194  A    between atoms: _460  and  _463
REMARK  195  A    between atoms: _463  and  _464
REMARK  196  A    between atoms: _469  and  _471
REMARK  197  A    between atoms: _471  and  _472
REMARK  198  A    between atoms: _471  and  _474
REMARK  199  A    between atoms: _474  and  _475
REMARK  200  A    between atoms: _475  and  _476
REMARK  201  A    between atoms: _481  and  _483
REMARK  202  A    between atoms: _483  and  _484
REMARK  203  A    between atoms: _483  and  _486
REMARK  204  A    between atoms: _486  and  _487
REMARK  205  A    between atoms: _493  and  _495
REMARK  206  A    between atoms: _495  and  _496
REMARK  207  A    between atoms: _495  and  _498
REMARK  208  A    between atoms: _498  and  _499
REMARK  209  A    between atoms: _502  and  _504
REMARK  210  A    between atoms: _504  and  _505
REMARK  211  A    between atoms: _504  and  _507
REMARK  212  A    between atoms: _507  and  _508
REMARK  213  A    between atoms: _514  and  _516
REMARK  214  A    between atoms: _516  and  _517
REMARK  215  A    between atoms: _516  and  _519
REMARK  216  A    between atoms: _519  and  _520
REMARK  217  A    between atoms: _523  and  _525
REMARK  218  A    between atoms: _525  and  _526
REMARK  219  A    between atoms: _525  and  _528
REMARK  220  A    between atoms: _528  and  _529
REMARK  221  A    between atoms: _532  and  _534
REMARK  222  A    between atoms: _534  and  _535
REMARK  223  A    between atoms: _534  and  _537
REMARK  224  A    between atoms: _540  and  _542
REMARK  225  A    between atoms: _542  and  _543
REMARK  226  A    between atoms: _542  and  _545
REMARK  227  A    between atoms: _545  and  _546
REMARK  228  A    between atoms: _549  and  _551
REMARK  229  A    between atoms: _551  and  _552
REMARK  230  A    between atoms: _551  and  _554
REMARK  231  A    between atoms: _554  and  _555
REMARK  232  A    between atoms: _562  and  _563
REMARK  233  A    between atoms: _568  and  _570
REMARK  234  A    between atoms: _570  and  _571
REMARK  235  A    between atoms: _570  and  _573
REMARK  236  A    between atoms: _573  and  _574
REMARK  237  A    between atoms: _574  and  _575
REMARK  238  A    between atoms: _577  and  _579
REMARK  239  A    between atoms: _579  and  _580
REMARK  240  A    between atoms: _579  and  _582
REMARK  241  A    between atoms: _582  and  _583
REMARK  242  A    between atoms: _583  and  _584
REMARK  243  A    between atoms: _586  and  _588
REMARK  244  A    between atoms: _588  and  _589
REMARK  245  A    between atoms: _592  and  _594
REMARK  246  A    between atoms: _594  and  _595
REMARK  247  A    between atoms: _594  and  _597
REMARK  248  A    between atoms: _597  and  _598
REMARK  249  A    between atoms: _601  and  _603
REMARK  250  A    between atoms: _603  and  _604
REMARK  251  A    between atoms: _603  and  _606
REMARK  252  A    between atoms: _606  and  _607
REMARK  253  A    between atoms: _610  and  _612
REMARK  254  A    between atoms: _612  and  _613
REMARK  255  A    between atoms: _612  and  _615
REMARK  256  A    between atoms: _615  and  _616
REMARK  257  A    between atoms: _618  and  _620
REMARK  258  A    between atoms: _620  and  _621
REMARK  259  A    between atoms: _620  and  _623
REMARK  260  A    between atoms: _626  and  _628
REMARK  261  A    between atoms: _628  and  _629
REMARK  262  A    between atoms: _628  and  _631
REMARK  263  A    between atoms: _631  and  _632
REMARK  264  A    between atoms: _632  and  _633
REMARK  265  A    between atoms: _638  and  _640
REMARK  266  A    between atoms: _640  and  _641
REMARK  267  A    between atoms: _640  and  _643
REMARK  268  A    between atoms: _647  and  _648
REMARK  269  A    between atoms: _653  and  _655
REMARK  270  A    between atoms: _655  and  _656
REMARK  271  A    between atoms: _655  and  _658
REMARK  272  A    between atoms: _658  and  _659
REMARK                            x       y       z     vdW  Elec       q    Type
REMARK                         _______ _______ _______ _____ _____    ______ ____
ROOT
ATOM      1  O   HOH     1      24.622  15.199   5.152  0.00  0.00    +0.000 OA
ENDROOT
TORSDOF 0
REMARK  Name = ../refined-set-2016/3b65/3b65_pocket.pdb
REMARK  272 active torsions:
REMARK  status: ('A' for Active; 'I' for Inactive)
REMARK    1  A    between atoms: _1  and  _3
REMARK    2  A    between atoms: _3  and  _4
REMARK    3  A    between atoms: _3  and  _6
REMARK    4  A    between atoms: _9  and  _11
REMARK    5  A    between atoms: _11  and  _12
REMARK    6  A    between atoms: _15  and  _17
REMARK    7  A    between atoms: _17  and  _18
REMARK    8  A    between atoms: _17  and  _20
REMARK    9  A    between atoms: _20  and  _21
REMARK   10  A    between atoms: _27  and  _29
REMARK   11  A    between atoms: _29  and  _30
REMARK   12  A    between atoms: _29  and  _32
REMARK   13  A    between atoms: _32  and  _33
REMARK   14  A    between atoms: _36  and  _38
REMARK   15  A    between atoms: _38  and  _39
REMARK   16  A    between atoms: _38  and  _41
REMARK   17  A    between atoms: _41  and  _42
REMARK   18  A    between atoms: _45  and  _47
REMARK   19  A    between atoms: _47  and  _48
REMARK   20  A    between atoms: _47  and  _50
REMARK   21  A    between atoms: _50  and  _51
REMARK   22  A    between atoms: _53  and  _55
REMARK   23  A    between atoms: _55  and  _56
REMARK   24  A    between atoms: _55  and  _58
REMARK   25  A    between atoms: _58  and  _59
REMARK   26  A    between atoms: _61  and  _63
REMARK   27  A    between atoms: _63  and  _64
REMARK   28  A    between atoms: _63  and  _66
REMARK   29  A    between atoms: _66  and  _67
REMARK   30  A    between atoms: _70  and  _72
REMARK   31  A    between atoms: _72  and  _73
REMARK   32  A    between atoms: _72  and  _75
REMARK   33  A    between atoms: _75  and  _76
REMARK   34  A    between atoms: _81  and  _83
REMARK   35  A    between atoms: _83  and  _84
REMARK   36  A    between atoms: _83  and  _86
REMARK   37  A    between atoms: _86  and  _87
REMARK   38  A    between atoms: _87  and  _88
REMARK   39  A    between atoms: _91  and  _93
REMARK   40  A    between atoms: _93  and  _94
REMARK   41  A    between atoms: _93  and  _96
REMARK   42  A    between atoms: _96  and  _97
REMARK   43  A    between atoms: _100  and  _102
REMARK   44  A    between atoms: _102  and  _103
REMARK   45  A    between atoms: _105  and  _107
REMARK   46  A    between atoms: _107  and  _108
REMARK   47  A    between atoms: _107  and  _110
REMARK   48  A    between atoms: _110  and  _111
REMARK   49  A    between atoms: _111  and  _112
REMARK   50  A    between atoms: _115  and  _117
REMARK   51  A    between atoms: _117  and  _118
REMARK   52  A    between atoms: _117  and  _120
REMARK   53  A    between atoms: _120  and  _121
REMARK   54  A    between atoms: _121  and  _122
REMARK   55  A    between atoms: _122  and  _123
REMARK   56  A    between atoms: _132  and  _134
REMARK   57  A    between atoms: _134  and  _135
REMARK   58  A    between atoms: _134  and  _137
REMARK   59  A    between atoms: _137  and  _138
REMARK   60  A    between atoms: _138  and  _139
REMARK   61  A    between atoms: _144  and  _146
REMARK   62  A    between atoms: _146  and  _147
REMARK   63  A    between atoms: _146  and  _149
REMARK   64  A    between atoms: _149  and  _150
REMARK   65  A    between atoms: _153  and  _155
REMARK   66  A    between atoms: _155  and  _156
REMARK   67  A    between atoms: _155  and  _158
REMARK   68  A    between atoms: _158  and  _159
REMARK   69  A    between atoms: _162  and  _164
REMARK   70  A    between atoms: _164  and  _165
REMARK   71  A    between atoms: _164  and  _167
REMARK   72  A    between atoms: _167  and  _168
REMARK   73  A    between atoms: _168  and  _169
REMARK   74  A    between atoms: _174  and  _176
REMARK   75  A    between atoms: _176  and  _177
REMARK   76  A    between atoms: _176  and  _179
REMARK   77  A    between atoms: _179  and  _180
REMARK   78  A    between atoms: _185  and  _186
REMARK   79  A    between atoms: _188  and  _190
REMARK   80  A    between atoms: _190  and  _191
REMARK   81  A    between atoms: _190  and  _193
REMARK   82  A    between atoms: _193  and  _194
REMARK   83  A    between atoms: _196  and  _198
REMARK   84  A    between atoms: _198  and  _199
REMARK   85  A    between atoms: _198  and  _201
REMARK   86  A    between atoms: _201  and  _202
REMARK   87  A    between atoms: _212  and  _214
REMARK   88  A    between atoms: _214  and  _215
REMARK   89  A    between atoms: _214  and  _217
REMARK   90  A    between atoms: _217  and  _218
REMARK   91  A    between atoms: _218  and  _219
REMARK   92  A    between atoms: _221  and  _223
REMARK   93  A    between atoms: _223  and  _224
REMARK   94  A    between atoms: _226  and  _228
REMARK   95  A    between atoms: _228  and  _229
REMARK   96  A    between atoms: _228  and  _231
REMARK   97  A    between atoms: _231  and  _232
REMARK   98  A    between atoms: _235  and  _237
REMARK   99  A    between atoms: _237  and  _238
REMARK  100  A    between atoms: _237  and  _240
REMARK  101  A    between atoms: _240  and  _241
REMARK  102  A    between atoms: _241  and  _242
REMARK  103  A    between atoms: _244  and  _246
REMARK  104  A    between atoms: _246  and  _247
REMARK  105  A    between atoms: _246  and  _249
REMARK  106  A    between atoms: _252  and  _254
REMARK  107  A    between atoms: _254  and  _255
REMARK  108  A    between atoms: _254  and  _257
REMARK  109  A    between atoms: _257  and  _258
REMARK  110  A    between atoms: _264  and  _266
REMARK  111  A    between atoms: _266  and  _267
REMARK  112  A    between atoms: _270  and  _272
REMARK  113  A    between atoms: _272  and  _273
REMARK  114  A    between atoms: _272  and  _275
REMARK  115  A    between atoms: _275  and  _276
REMARK  116  A    between atoms: _276  and  _277
REMARK  117  A    between atoms: _279  and  _281
REMARK  118  A    between atoms: _281  and  _282
REMARK  119  A    between atoms: _284  and  _286
REMARK  120  A    between atoms: _286  and  _287
REMARK  121  A    between atoms: _286  and  _289
REMARK  122  A    between atoms: _289  and  _290
REMARK  123  A    between atoms: _290  and  _291
REMARK  124  A    between atoms: _291  and  _292
REMARK  125  A    between atoms: _301  and  _303
REMARK  126  A    between atoms: _303  and  _304
REMARK  127  A    between atoms: _303  and  _306
REMARK  128  A    between atoms: _306  and  _307
REMARK  129  A    between atoms: _309  and  _311
REMARK  130  A    between atoms: _311  and  _312
REMARK  131  A    between atoms: _311  and  _314
REMARK  132  A    between atoms: _314  and  _315
REMARK  133  A    between atoms: _318  and  _320
REMARK  134  A    between atoms: _320  and  _321
REMARK  135  A    between atoms: _320  and  _323
REMARK  136  A    between atoms: _323  and  _324
REMARK  137  A    between atoms: _329  and  _330
REMARK  138  A    between atoms: _332  and  _334
REMARK  139  A    between atoms: _334  and  _335
REMARK  140  A    between atoms: _334  and  _337
REMARK  141  A    between atoms: _337  and  _338
REMARK  142  A    between atoms: _344  and  _346
REMARK  143  A    between atoms: _346  and  _347
REMARK  144  A    between atoms: _350  and  _352
REMARK  145  A    between atoms: _352  and  _353
REMARK  146  A    between atoms: _352  and  _355
REMARK  147  A    between atoms: _355  and  _356
REMARK  148  A    between atoms: _359  and  _361
REMARK  149  A    between atoms: _361  and  _362
REMARK  150  A    between atoms: _361  and  _364
REMARK  151  A    between atoms: _364  and  _365
REMARK  152  A    between atoms: _371  and  _373
REMARK  153  A    between atoms: _373  and  _374
REMARK  154  A    between atoms: _373  and  _376
REMARK  155  A    between atoms: _376  and  _377
REMARK  156  A    between atoms: _379  and  _381
REMARK  157  A    between atoms: _381  and  _382
REMARK  158  A    between atoms: _381  and  _384
REMARK  159  A    between atoms: _384  and  _385
REMARK  160  A    between atoms: _385  and  _386
REMARK  161  A    between atoms: _388  and  _390
REMARK  162  A    between atoms: _390  and  _391
REMARK  163  A    between atoms: _390  and  _393
REMARK  164  A    between atoms: _393  and  _394
REMARK  165  A    between atoms: _394  and  _395
REMARK  166  A    between atoms: _400  and  _402
REMARK  167  A    between atoms: _402  and  _403
REMARK  168  A    between atoms: _402  and  _405
REMARK  169  A    between atoms: _407  and  _409
REMARK  170  A    between atoms: _409  and  _410
REMARK  171  A    between atoms: _409  and  _412
REMARK  172  A    between atoms: _412  and  _413
REMARK  173  A    between atoms: _413  and  _414
REMARK  174  A    between atoms: _416  and  _418
REMARK  175  A    between atoms: _418  and  _419
REMARK  176  A    between atoms: _418  and  _421
REMARK  177  A    between atoms: _421  and  _422
REMARK  178  A    between atoms: _425  and  _427
REMARK  179  A    between atoms: _427  and  _428
REMARK  180  A    between atoms: _427  and  _430
REMARK  181  A    between atoms: _430  and  _431
REMARK  182  A    between atoms: _434  and  _436
REMARK  183  A    between atoms: _436  and  _437
REMARK  184  A    between atoms: _436  and  _439
REMARK  185  A    between atoms: _439  and  _440
REMARK  186  A    between atoms: _443  and  _445
REMARK  187  A    between atoms: _445  and  _446
REMARK  188  A    between atoms: _449  and  _451
REMARK  189  A    between atoms: _451  and  _452
REMARK  190  A    between atoms: _451  and  _454
REMARK  191  A    between atoms: _454  and  _455
REMARK  192  A    between atoms: _458  and  _460
REMARK  193  A    between atoms: _460  and  _461
REMARK  194  A    between atoms: _460  and  _463
REMARK  195  A    between atoms: _463  and  _464
REMARK  196  A    between atoms: _469  and  _471
REMARK  197  A    between atoms: _471  and  _472
REMARK  198  A    between atoms: _471  and  _474
REMARK  199  A    between atoms: _474  and  _475
REMARK  200  A    between atoms: _475  and  _476
REMARK  201  A    between atoms: _481  and  _483
REMARK  202  A    between atoms: _483  and  _484
REMARK  203  A    between atoms: _483  and  _486
REMARK  204  A    between atoms: _486  and  _487
REMARK  205  A    between atoms: _493  and  _495
REMARK  206  A    between atoms: _495  and  _496
REMARK  207  A    between atoms: _495  and  _498
REMARK  208  A    between atoms: _498  and  _499
REMARK  209  A    between atoms: _502  and  _504
REMARK  210  A    between atoms: _504  and  _505
REMARK  211  A    between atoms: _504  and  _507
REMARK  212  A    between atoms: _507  and  _508
REMARK  213  A    between atoms: _514  and  _516
REMARK  214  A    between atoms: _516  and  _517
REMARK  215  A    between atoms: _516  and  _519
REMARK  216  A    between atoms: _519  and  _520
REMARK  217  A    between atoms: _523  and  _525
REMARK  218  A    between atoms: _525  and  _526
REMARK  219  A    between atoms: _525  and  _528
REMARK  220  A    between atoms: _528  and  _529
REMARK  221  A    between atoms: _532  and  _534
REMARK  222  A    between atoms: _534  and  _535
REMARK  223  A    between atoms: _534  and  _537
REMARK  224  A    between atoms: _540  and  _542
REMARK  225  A    between atoms: _542  and  _543
REMARK  226  A    between atoms: _542  and  _545
REMARK  227  A    between atoms: _545  and  _546
REMARK  228  A    between atoms: _549  and  _551
REMARK  229  A    between atoms: _551  and  _552
REMARK  230  A    between atoms: _551  and  _554
REMARK  231  A    between atoms: _554  and  _555
REMARK  232  A    between atoms: _562  and  _563
REMARK  233  A    between atoms: _568  and  _570
REMARK  234  A    between atoms: _570  and  _571
REMARK  235  A    between atoms: _570  and  _573
REMARK  236  A    between atoms: _573  and  _574
REMARK  237  A    between atoms: _574  and  _575
REMARK  238  A    between atoms: _577  and  _579
REMARK  239  A    between atoms: _579  and  _580
REMARK  240  A    between atoms: _579  and  _582
REMARK  241  A    between atoms: _582  and  _583
REMARK  242  A    between atoms: _583  and  _584
REMARK  243  A    between atoms: _586  and  _588
REMARK  244  A    between atoms: _588  and  _589
REMARK  245  A    between atoms: _592  and  _594
REMARK  246  A    between atoms: _594  and  _595
REMARK  247  A    between atoms: _594  and  _597
REMARK  248  A    between atoms: _597  and  _598
REMARK  249  A    between atoms: _601  and  _603
REMARK  250  A    between atoms: _603  and  _604
REMARK  251  A    between atoms: _603  and  _606
REMARK  252  A    between atoms: _606  and  _607
REMARK  253  A    between atoms: _610  and  _612
REMARK  254  A    between atoms: _612  and  _613
REMARK  255  A    between atoms: _612  and  _615
REMARK  256  A    between atoms: _615  and  _616
REMARK  257  A    between atoms: _618  and  _620
REMARK  258  A    between atoms: _620  and  _621
REMARK  259  A    between atoms: _620  and  _623
REMARK  260  A    between atoms: _626  and  _628
REMARK  261  A    between atoms: _628  and  _629
REMARK  262  A    between atoms: _628  and  _631
REMARK  263  A    between atoms: _631  and  _632
REMARK  264  A    between atoms: _632  and  _633
REMARK  265  A    between atoms: _638  and  _640
REMARK  266  A    between atoms: _640  and  _641
REMARK  267  A    between atoms: _640  and  _643
REMARK  268  A    between atoms: _647  and  _648
REMARK  269  A    between atoms: _653  and  _655
REMARK  270  A    between atoms: _655  and  _656
REMARK  271  A    between atoms: _655  and  _658
REMARK  272  A    between atoms: _658  and  _659
REMARK                            x       y       z     vdW  Elec       q    Type
REMARK                         _______ _______ _______ _____ _____    ______ ____
ROOT
ATOM      1  O   HOH     1      20.967  14.176   5.343  0.00  0.00    +0.000 OA
ENDROOT
TORSDOF 0
REMARK  Name = ../refined-set-2016/3b65/3b65_pocket.pdb
REMARK  272 active torsions:
REMARK  status: ('A' for Active; 'I' for Inactive)
REMARK    1  A    between atoms: _1  and  _3
REMARK    2  A    between atoms: _3  and  _4
REMARK    3  A    between atoms: _3  and  _6
REMARK    4  A    between atoms: _9  and  _11
REMARK    5  A    between atoms: _11  and  _12
REMARK    6  A    between atoms: _15  and  _17
REMARK    7  A    between atoms: _17  and  _18
REMARK    8  A    between atoms: _17  and  _20
REMARK    9  A    between atoms: _20  and  _21
REMARK   10  A    between atoms: _27  and  _29
REMARK   11  A    between atoms: _29  and  _30
REMARK   12  A    between atoms: _29  and  _32
REMARK   13  A    between atoms: _32  and  _33
REMARK   14  A    between atoms: _36  and  _38
REMARK   15  A    between atoms: _38  and  _39
REMARK   16  A    between atoms: _38  and  _41
REMARK   17  A    between atoms: _41  and  _42
REMARK   18  A    between atoms: _45  and  _47
REMARK   19  A    between atoms: _47  and  _48
REMARK   20  A    between atoms: _47  and  _50
REMARK   21  A    between atoms: _50  and  _51
REMARK   22  A    between atoms: _53  and  _55
REMARK   23  A    between atoms: _55  and  _56
REMARK   24  A    between atoms: _55  and  _58
REMARK   25  A    between atoms: _58  and  _59
REMARK   26  A    between atoms: _61  and  _63
REMARK   27  A    between atoms: _63  and  _64
REMARK   28  A    between atoms: _63  and  _66
REMARK   29  A    between atoms: _66  and  _67
REMARK   30  A    between atoms: _70  and  _72
REMARK   31  A    between atoms: _72  and  _73
REMARK   32  A    between atoms: _72  and  _75
REMARK   33  A    between atoms: _75  and  _76
REMARK   34  A    between atoms: _81  and  _83
REMARK   35  A    between atoms: _83  and  _84
REMARK   36  A    between atoms: _83  and  _86
REMARK   37  A    between atoms: _86  and  _87
REMARK   38  A    between atoms: _87  and  _88
REMARK   39  A    between atoms: _91  and  _93
REMARK   40  A    between atoms: _93  and  _94
REMARK   41  A    between atoms: _93  and  _96
REMARK   42  A    between atoms: _96  and  _97
REMARK   43  A    between atoms: _100  and  _102
REMARK   44  A    between atoms: _102  and  _103
REMARK   45  A    between atoms: _105  and  _107
REMARK   46  A    between atoms: _107  and  _108
REMARK   47  A    between atoms: _107  and  _110
REMARK   48  A    between atoms: _110  and  _111
REMARK   49  A    between atoms: _111  and  _112
REMARK   50  A    between atoms: _115  and  _117
REMARK   51  A    between atoms: _117  and  _118
REMARK   52  A    between atoms: _117  and  _120
REMARK   53  A    between atoms: _120  and  _121
REMARK   54  A    between atoms: _121  and  _122
REMARK   55  A    between atoms: _122  and  _123
REMARK   56  A    between atoms: _132  and  _134
REMARK   57  A    between atoms: _134  and  _135
REMARK   58  A    between atoms: _134  and  _137
REMARK   59  A    between atoms: _137  and  _138
REMARK   60  A    between atoms: _138  and  _139
REMARK   61  A    between atoms: _144  and  _146
REMARK   62  A    between atoms: _146  and  _147
REMARK   63  A    between atoms: _146  and  _149
REMARK   64  A    between atoms: _149  and  _150
REMARK   65  A    between atoms: _153  and  _155
REMARK   66  A    between atoms: _155  and  _156
REMARK   67  A    between atoms: _155  and  _158
REMARK   68  A    between atoms: _158  and  _159
REMARK   69  A    between atoms: _162  and  _164
REMARK   70  A    between atoms: _164  and  _165
REMARK   71  A    between atoms: _164  and  _167
REMARK   72  A    between atoms: _167  and  _168
REMARK   73  A    between atoms: _168  and  _169
REMARK   74  A    between atoms: _174  and  _176
REMARK   75  A    between atoms: _176  and  _177
REMARK   76  A    between atoms: _176  and  _179
REMARK   77  A    between atoms: _179  and  _180
REMARK   78  A    between atoms: _185  and  _186
REMARK   79  A    between atoms: _188  and  _190
REMARK   80  A    between atoms: _190  and  _191
REMARK   81  A    between atoms: _190  and  _193
REMARK   82  A    between atoms: _193  and  _194
REMARK   83  A    between atoms: _196  and  _198
REMARK   84  A    between atoms: _198  and  _199
REMARK   85  A    between atoms: _198  and  _201
REMARK   86  A    between atoms: _201  and  _202
REMARK   87  A    between atoms: _212  and  _214
REMARK   88  A    between atoms: _214  and  _215
REMARK   89  A    between atoms: _214  and  _217
REMARK   90  A    between atoms: _217  and  _218
REMARK   91  A    between atoms: _218  and  _219
REMARK   92  A    between atoms: _221  and  _223
REMARK   93  A    between atoms: _223  and  _224
REMARK   94  A    between atoms: _226  and  _228
REMARK   95  A    between atoms: _228  and  _229
REMARK   96  A    between atoms: _228  and  _231
REMARK   97  A    between atoms: _231  and  _232
REMARK   98  A    between atoms: _235  and  _237
REMARK   99  A    between atoms: _237  and  _238
REMARK  100  A    between atoms: _237  and  _240
REMARK  101  A    between atoms: _240  and  _241
REMARK  102  A    between atoms: _241  and  _242
REMARK  103  A    between atoms: _244  and  _246
REMARK  104  A    between atoms: _246  and  _247
REMARK  105  A    between atoms: _246  and  _249
REMARK  106  A    between atoms: _252  and  _254
REMARK  107  A    between atoms: _254  and  _255
REMARK  108  A    between atoms: _254  and  _257
REMARK  109  A    between atoms: _257  and  _258
REMARK  110  A    between atoms: _264  and  _266
REMARK  111  A    between atoms: _266  and  _267
REMARK  112  A    between atoms: _270  and  _272
REMARK  113  A    between atoms: _272  and  _273
REMARK  114  A    between atoms: _272  and  _275
REMARK  115  A    between atoms: _275  and  _276
REMARK  116  A    between atoms: _276  and  _277
REMARK  117  A    between atoms: _279  and  _281
REMARK  118  A    between atoms: _281  and  _282
REMARK  119  A    between atoms: _284  and  _286
REMARK  120  A    between atoms: _286  and  _287
REMARK  121  A    between atoms: _286  and  _289
REMARK  122  A    between atoms: _289  and  _290
REMARK  123  A    between atoms: _290  and  _291
REMARK  124  A    between atoms: _291  and  _292
REMARK  125  A    between atoms: _301  and  _303
REMARK  126  A    between atoms: _303  and  _304
REMARK  127  A    between atoms: _303  and  _306
REMARK  128  A    between atoms: _306  and  _307
REMARK  129  A    between atoms: _309  and  _311
REMARK  130  A    between atoms: _311  and  _312
REMARK  131  A    between atoms: _311  and  _314
REMARK  132  A    between atoms: _314  and  _315
REMARK  133  A    between atoms: _318  and  _320
REMARK  134  A    between atoms: _320  and  _321
REMARK  135  A    between atoms: _320  and  _323
REMARK  136  A    between atoms: _323  and  _324
REMARK  137  A    between atoms: _329  and  _330
REMARK  138  A    between atoms: _332  and  _334
REMARK  139  A    between atoms: _334  and  _335
REMARK  140  A    between atoms: _334  and  _337
REMARK  141  A    between atoms: _337  and  _338
REMARK  142  A    between atoms: _344  and  _346
REMARK  143  A    between atoms: _346  and  _347
REMARK  144  A    between atoms: _350  and  _352
REMARK  145  A    between atoms: _352  and  _353
REMARK  146  A    between atoms: _352  and  _355
REMARK  147  A    between atoms: _355  and  _356
REMARK  148  A    between atoms: _359  and  _361
REMARK  149  A    between atoms: _361  and  _362
REMARK  150  A    between atoms: _361  and  _364
REMARK  151  A    between atoms: _364  and  _365
REMARK  152  A    between atoms: _371  and  _373
REMARK  153  A    between atoms: _373  and  _374
REMARK  154  A    between atoms: _373  and  _376
REMARK  155  A    between atoms: _376  and  _377
REMARK  156  A    between atoms: _379  and  _381
REMARK  157  A    between atoms: _381  and  _382
REMARK  158  A    between atoms: _381  and  _384
REMARK  159  A    between atoms: _384  and  _385
REMARK  160  A    between atoms: _385  and  _386
REMARK  161  A    between atoms: _388  and  _390
REMARK  162  A    between atoms: _390  and  _391
REMARK  163  A    between atoms: _390  and  _393
REMARK  164  A    between atoms: _393  and  _394
REMARK  165  A    between atoms: _394  and  _395
REMARK  166  A    between atoms: _400  and  _402
REMARK  167  A    between atoms: _402  and  _403
REMARK  168  A    between atoms: _402  and  _405
REMARK  169  A    between atoms: _407  and  _409
REMARK  170  A    between atoms: _409  and  _410
REMARK  171  A    between atoms: _409  and  _412
REMARK  172  A    between atoms: _412  and  _413
REMARK  173  A    between atoms: _413  and  _414
REMARK  174  A    between atoms: _416  and  _418
REMARK  175  A    between atoms: _418  and  _419
REMARK  176  A    between atoms: _418  and  _421
REMARK  177  A    between atoms: _421  and  _422
REMARK  178  A    between atoms: _425  and  _427
REMARK  179  A    between atoms: _427  and  _428
REMARK  180  A    between atoms: _427  and  _430
REMARK  181  A    between atoms: _430  and  _431
REMARK  182  A    between atoms: _434  and  _436
REMARK  183  A    between atoms: _436  and  _437
REMARK  184  A    between atoms: _436  and  _439
REMARK  185  A    between atoms: _439  and  _440
REMARK  186  A    between atoms: _443  and  _445
REMARK  187  A    between atoms: _445  and  _446
REMARK  188  A    between atoms: _449  and  _451
REMARK  189  A    between atoms: _451  and  _452
REMARK  190  A    between atoms: _451  and  _454
REMARK  191  A    between atoms: _454  and  _455
REMARK  192  A    between atoms: _458  and  _460
REMARK  193  A    between atoms: _460  and  _461
REMARK  194  A    between atoms: _460  and  _463
REMARK  195  A    between atoms: _463  and  _464
REMARK  196  A    between atoms: _469  and  _471
REMARK  197  A    between atoms: _471  and  _472
REMARK  198  A    between atoms: _471  and  _474
REMARK  199  A    between atoms: _474  and  _475
REMARK  200  A    between atoms: _475  and  _476
REMARK  201  A    between atoms: _481  and  _483
REMARK  202  A    between atoms: _483  and  _484
REMARK  203  A    between atoms: _483  and  _486
REMARK  204  A    between atoms: _486  and  _487
REMARK  205  A    between atoms: _493  and  _495
REMARK  206  A    between atoms: _495  and  _496
REMARK  207  A    between atoms: _495  and  _498
REMARK  208  A    between atoms: _498  and  _499
REMARK  209  A    between atoms: _502  and  _504
REMARK  210  A    between atoms: _504  and  _505
REMARK  211  A    between atoms: _504  and  _507
REMARK  212  A    between atoms: _507  and  _508
REMARK  213  A    between atoms: _514  and  _516
REMARK  214  A    between atoms: _516  and  _517
REMARK  215  A    between atoms: _516  and  _519
REMARK  216  A    between atoms: _519  and  _520
REMARK  217  A    between atoms: _523  and  _525
REMARK  218  A    between atoms: _525  and  _526
REMARK  219  A    between atoms: _525  and  _528
REMARK  220  A    between atoms: _528  and  _529
REMARK  221  A    between atoms: _532  and  _534
REMARK  222  A    between atoms: _534  and  _535
REMARK  223  A    between atoms: _534  and  _537
REMARK  224  A    between atoms: _540  and  _542
REMARK  225  A    between atoms: _542  and  _543
REMARK  226  A    between atoms: _542  and  _545
REMARK  227  A    between atoms: _545  and  _546
REMARK  228  A    between atoms: _549  and  _551
REMARK  229  A    between atoms: _551  and  _552
REMARK  230  A    between atoms: _551  and  _554
REMARK  231  A    between atoms: _554  and  _555
REMARK  232  A    between atoms: _562  and  _563
REMARK  233  A    between atoms: _568  and  _570
REMARK  234  A    between atoms: _570  and  _571
REMARK  235  A    between atoms: _570  and  _573
REMARK  236  A    between atoms: _573  and  _574
REMARK  237  A    between atoms: _574  and  _575
REMARK  238  A    between atoms: _577  and  _579
REMARK  239  A    between atoms: _579  and  _580
REMARK  240  A    between atoms: _579  and  _582
REMARK  241  A    between atoms: _582  and  _583
REMARK  242  A    between atoms: _583  and  _584
REMARK  243  A    between atoms: _586  and  _588
REMARK  244  A    between atoms: _588  and  _589
REMARK  245  A    between atoms: _592  and  _594
REMARK  246  A    between atoms: _594  and  _595
REMARK  247  A    between atoms: _594  and  _597
REMARK  248  A    between atoms: _597  and  _598
REMARK  249  A    between atoms: _601  and  _603
REMARK  250  A    between atoms: _603  and  _604
REMARK  251  A    between atoms: _603  and  _606
REMARK  252  A    between atoms: _606  and  _607
REMARK  253  A    between atoms: _610  and  _612
REMARK  254  A    between atoms: _612  and  _613
REMARK  255  A    between atoms: _612  and  _615
REMARK  256  A    between atoms: _615  and  _616
REMARK  257  A    between atoms: _618  and  _620
REMARK  258  A    between atoms: _620  and  _621
REMARK  259  A    between atoms: _620  and  _623
REMARK  260  A    between atoms: _626  and  _628
REMARK  261  A    between atoms: _628  and  _629
REMARK  262  A    between atoms: _628  and  _631
REMARK  263  A    between atoms: _631  and  _632
REMARK  264  A    between atoms: _632  and  _633
REMARK  265  A    between atoms: _638  and  _640
REMARK  266  A    between atoms: _640  and  _641
REMARK  267  A    between atoms: _640  and  _643
REMARK  268  A    between atoms: _647  and  _648
REMARK  269  A    between atoms: _653  and  _655
REMARK  270  A    between atoms: _655  and  _656
REMARK  271  A    between atoms: _655  and  _658
REMARK  272  A    between atoms: _658  and  _659
REMARK                            x       y       z     vdW  Elec       q    Type
REMARK                         _______ _______ _______ _____ _____    ______ ____
ROOT
ATOM      1  O   HOH     1      26.081  13.430   6.552  0.00  0.00    +0.000 OA
ENDROOT
TORSDOF 0
