REMARK  Name = ../refined-set-2016/2p4j/2p4j_pocket.pdb
REMARK  297 active torsions:
REMARK  status: ('A' for Active; 'I' for Inactive)
REMARK    1  A    between atoms: _1  and  _3
REMARK    2  A    between atoms: _3  and  _4
REMARK    3  A    between atoms: _6  and  _8
REMARK    4  A    between atoms: _8  and  _9
REMARK    5  A    between atoms: _8  and  _11
REMARK    6  A    between atoms: _11  and  _12
REMARK    7  A    between atoms: _12  and  _13
REMARK    8  A    between atoms: _13  and  _14
REMARK    9  A    between atoms: _14  and  _15
REMARK   10  A    between atoms: _19  and  _21
REMARK   11  A    between atoms: _21  and  _22
REMARK   12  A    between atoms: _21  and  _24
REMARK   13  A    between atoms: _24  and  _25
REMARK   14  A    between atoms: _27  and  _29
REMARK   15  A    between atoms: _29  and  _30
REMARK   16  A    between atoms: _32  and  _34
REMARK   17  A    between atoms: _34  and  _35
REMARK   18  A    between atoms: _34  and  _37
REMARK   19  A    between atoms: _37  and  _38
REMARK   20  A    between atoms: _38  and  _39
REMARK   21  A    between atoms: _44  and  _46
REMARK   22  A    between atoms: _46  and  _47
REMARK   23  A    between atoms: _49  and  _51
REMARK   24  A    between atoms: _51  and  _52
REMARK   25  A    between atoms: _51  and  _54
REMARK   26  A    between atoms: _54  and  _55
REMARK   27  A    between atoms: _60  and  _61
REMARK   28  A    between atoms: _63  and  _65
REMARK   29  A    between atoms: _65  and  _66
REMARK   30  A    between atoms: _65  and  _68
REMARK   31  A    between atoms: _68  and  _69
REMARK   32  A    between atoms: _72  and  _74
REMARK   33  A    between atoms: _74  and  _75
REMARK   34  A    between atoms: _74  and  _77
REMARK   35  A    between atoms: _80  and  _82
REMARK   36  A    between atoms: _82  and  _83
REMARK   37  A    between atoms: _82  and  _85
REMARK   38  A    between atoms: _85  and  _86
REMARK   39  A    between atoms: _89  and  _91
REMARK   40  A    between atoms: _91  and  _92
REMARK   41  A    between atoms: _91  and  _94
REMARK   42  A    between atoms: _94  and  _95
REMARK   43  A    between atoms: _98  and  _100
REMARK   44  A    between atoms: _100  and  _101
REMARK   45  A    between atoms: _103  and  _105
REMARK   46  A    between atoms: _105  and  _106
REMARK   47  A    between atoms: _105  and  _108
REMARK   48  A    between atoms: _108  and  _109
REMARK   49  A    between atoms: _111  and  _113
REMARK   50  A    between atoms: _113  and  _114
REMARK   51  A    between atoms: _113  and  _116
REMARK   52  A    between atoms: _116  and  _117
REMARK   53  A    between atoms: _119  and  _121
REMARK   54  A    between atoms: _121  and  _122
REMARK   55  A    between atoms: _121  and  _124
REMARK   56  A    between atoms: _124  and  _125
REMARK   57  A    between atoms: _130  and  _132
REMARK   58  A    between atoms: _132  and  _133
REMARK   59  A    between atoms: _132  and  _135
REMARK   60  A    between atoms: _135  and  _136
REMARK   61  A    between atoms: _141  and  _142
REMARK   62  A    between atoms: _144  and  _146
REMARK   63  A    between atoms: _146  and  _147
REMARK   64  A    between atoms: _146  and  _149
REMARK   65  A    between atoms: _153  and  _154
REMARK   66  A    between atoms: _159  and  _161
REMARK   67  A    between atoms: _161  and  _162
REMARK   68  A    between atoms: _161  and  _164
REMARK   69  A    between atoms: _164  and  _165
REMARK   70  A    between atoms: _170  and  _171
REMARK   71  A    between atoms: _173  and  _175
REMARK   72  A    between atoms: _175  and  _176
REMARK   73  A    between atoms: _175  and  _178
REMARK   74  A    between atoms: _178  and  _179
REMARK   75  A    between atoms: _182  and  _184
REMARK   76  A    between atoms: _184  and  _185
REMARK   77  A    between atoms: _184  and  _187
REMARK   78  A    between atoms: _187  and  _188
REMARK   79  A    between atoms: _188  and  _189
REMARK   80  A    between atoms: _194  and  _196
REMARK   81  A    between atoms: _196  and  _197
REMARK   82  A    between atoms: _199  and  _201
REMARK   83  A    between atoms: _201  and  _202
REMARK   84  A    between atoms: _201  and  _204
REMARK   85  A    between atoms: _204  and  _205
REMARK   86  A    between atoms: _205  and  _206
REMARK   87  A    between atoms: _206  and  _207
REMARK   88  A    between atoms: _207  and  _208
REMARK   89  A    between atoms: _212  and  _214
REMARK   90  A    between atoms: _214  and  _215
REMARK   91  A    between atoms: _214  and  _217
REMARK   92  A    between atoms: _217  and  _218
REMARK   93  A    between atoms: _228  and  _230
REMARK   94  A    between atoms: _230  and  _231
REMARK   95  A    between atoms: _230  and  _233
REMARK   96  A    between atoms: _233  and  _234
REMARK   97  A    between atoms: _237  and  _239
REMARK   98  A    between atoms: _239  and  _240
REMARK   99  A    between atoms: _239  and  _242
REMARK  100  A    between atoms: _242  and  _243
REMARK  101  A    between atoms: _243  and  _244
REMARK  102  A    between atoms: _244  and  _245
REMARK  103  A    between atoms: _245  and  _246
REMARK  104  A    between atoms: _250  and  _252
REMARK  105  A    between atoms: _252  and  _253
REMARK  106  A    between atoms: _252  and  _255
REMARK  107  A    between atoms: _255  and  _256
REMARK  108  A    between atoms: _262  and  _264
REMARK  109  A    between atoms: _264  and  _265
REMARK  110  A    between atoms: _264  and  _267
REMARK  111  A    between atoms: _267  and  _268
REMARK  112  A    between atoms: _274  and  _276
REMARK  113  A    between atoms: _276  and  _277
REMARK  114  A    between atoms: _276  and  _279
REMARK  115  A    between atoms: _279  and  _280
REMARK  116  A    between atoms: _283  and  _285
REMARK  117  A    between atoms: _285  and  _286
REMARK  118  A    between atoms: _285  and  _288
REMARK  119  A    between atoms: _288  and  _289
REMARK  120  A    between atoms: _291  and  _293
REMARK  121  A    between atoms: _293  and  _294
REMARK  122  A    between atoms: _293  and  _296
REMARK  123  A    between atoms: _296  and  _297
REMARK  124  A    between atoms: _307  and  _309
REMARK  125  A    between atoms: _309  and  _310
REMARK  126  A    between atoms: _312  and  _314
REMARK  127  A    between atoms: _314  and  _315
REMARK  128  A    between atoms: _314  and  _317
REMARK  129  A    between atoms: _317  and  _318
REMARK  130  A    between atoms: _321  and  _323
REMARK  131  A    between atoms: _323  and  _324
REMARK  132  A    between atoms: _323  and  _326
REMARK  133  A    between atoms: _326  and  _327
REMARK  134  A    between atoms: _330  and  _332
REMARK  135  A    between atoms: _332  and  _333
REMARK  136  A    between atoms: _332  and  _335
REMARK  137  A    between atoms: _335  and  _336
REMARK  138  A    between atoms: _339  and  _341
REMARK  139  A    between atoms: _341  and  _342
REMARK  140  A    between atoms: _345  and  _347
REMARK  141  A    between atoms: _347  and  _348
REMARK  142  A    between atoms: _347  and  _350
REMARK  143  A    between atoms: _350  and  _351
REMARK  144  A    between atoms: _356  and  _357
REMARK  145  A    between atoms: _359  and  _361
REMARK  146  A    between atoms: _361  and  _362
REMARK  147  A    between atoms: _361  and  _364
REMARK  148  A    between atoms: _364  and  _365
REMARK  149  A    between atoms: _365  and  _366
REMARK  150  A    between atoms: _369  and  _371
REMARK  151  A    between atoms: _371  and  _372
REMARK  152  A    between atoms: _371  and  _374
REMARK  153  A    between atoms: _374  and  _375
REMARK  154  A    between atoms: _378  and  _380
REMARK  155  A    between atoms: _380  and  _381
REMARK  156  A    between atoms: _384  and  _386
REMARK  157  A    between atoms: _386  and  _387
REMARK  158  A    between atoms: _386  and  _389
REMARK  159  A    between atoms: _389  and  _390
REMARK  160  A    between atoms: _390  and  _391
REMARK  161  A    between atoms: _391  and  _392
REMARK  162  A    between atoms: _401  and  _403
REMARK  163  A    between atoms: _403  and  _404
REMARK  164  A    between atoms: _403  and  _406
REMARK  165  A    between atoms: _406  and  _407
REMARK  166  A    between atoms: _410  and  _412
REMARK  167  A    between atoms: _412  and  _413
REMARK  168  A    between atoms: _412  and  _415
REMARK  169  A    between atoms: _415  and  _416
REMARK  170  A    between atoms: _426  and  _428
REMARK  171  A    between atoms: _428  and  _429
REMARK  172  A    between atoms: _428  and  _431
REMARK  173  A    between atoms: _431  and  _432
REMARK  174  A    between atoms: _437  and  _438
REMARK  175  A    between atoms: _440  and  _442
REMARK  176  A    between atoms: _442  and  _443
REMARK  177  A    between atoms: _442  and  _445
REMARK  178  A    between atoms: _445  and  _446
REMARK  179  A    between atoms: _451  and  _452
REMARK  180  A    between atoms: _454  and  _456
REMARK  181  A    between atoms: _456  and  _457
REMARK  182  A    between atoms: _456  and  _459
REMARK  183  A    between atoms: _459  and  _460
REMARK  184  A    between atoms: _460  and  _461
REMARK  185  A    between atoms: _461  and  _462
REMARK  186  A    between atoms: _462  and  _463
REMARK  187  A    between atoms: _467  and  _469
REMARK  188  A    between atoms: _469  and  _470
REMARK  189  A    between atoms: _469  and  _472
REMARK  190  A    between atoms: _472  and  _473
REMARK  191  A    between atoms: _476  and  _478
REMARK  192  A    between atoms: _478  and  _479
REMARK  193  A    between atoms: _478  and  _481
REMARK  194  A    between atoms: _484  and  _486
REMARK  195  A    between atoms: _486  and  _487
REMARK  196  A    between atoms: _486  and  _489
REMARK  197  A    between atoms: _489  and  _490
REMARK  198  A    between atoms: _493  and  _495
REMARK  199  A    between atoms: _495  and  _496
REMARK  200  A    between atoms: _495  and  _498
REMARK  201  A    between atoms: _498  and  _499
REMARK  202  A    between atoms: _501  and  _503
REMARK  203  A    between atoms: _503  and  _504
REMARK  204  A    between atoms: _506  and  _508
REMARK  205  A    between atoms: _508  and  _509
REMARK  206  A    between atoms: _508  and  _511
REMARK  207  A    between atoms: _511  and  _512
REMARK  208  A    between atoms: _515  and  _517
REMARK  209  A    between atoms: _517  and  _518
REMARK  210  A    between atoms: _517  and  _520
REMARK  211  A    between atoms: _520  and  _521
REMARK  212  A    between atoms: _524  and  _526
REMARK  213  A    between atoms: _526  and  _527
REMARK  214  A    between atoms: _526  and  _529
REMARK  215  A    between atoms: _529  and  _530
REMARK  216  A    between atoms: _535  and  _537
REMARK  217  A    between atoms: _537  and  _538
REMARK  218  A    between atoms: _537  and  _540
REMARK  219  A    between atoms: _540  and  _541
REMARK  220  A    between atoms: _544  and  _546
REMARK  221  A    between atoms: _546  and  _547
REMARK  222  A    between atoms: _546  and  _549
REMARK  223  A    between atoms: _549  and  _550
REMARK  224  A    between atoms: _550  and  _551
REMARK  225  A    between atoms: _551  and  _552
REMARK  226  A    between atoms: _561  and  _563
REMARK  227  A    between atoms: _563  and  _564
REMARK  228  A    between atoms: _563  and  _566
REMARK  229  A    between atoms: _566  and  _567
REMARK  230  A    between atoms: _570  and  _572
REMARK  231  A    between atoms: _572  and  _573
REMARK  232  A    between atoms: _572  and  _575
REMARK  233  A    between atoms: _575  and  _576
REMARK  234  A    between atoms: _579  and  _581
REMARK  235  A    between atoms: _581  and  _582
REMARK  236  A    between atoms: _584  and  _586
REMARK  237  A    between atoms: _586  and  _587
REMARK  238  A    between atoms: _586  and  _589
REMARK  239  A    between atoms: _589  and  _590
REMARK  240  A    between atoms: _590  and  _591
REMARK  241  A    between atoms: _591  and  _592
REMARK  242  A    between atoms: _601  and  _603
REMARK  243  A    between atoms: _603  and  _604
REMARK  244  A    between atoms: _603  and  _606
REMARK  245  A    between atoms: _606  and  _607
REMARK  246  A    between atoms: _613  and  _615
REMARK  247  A    between atoms: _615  and  _616
REMARK  248  A    between atoms: _619  and  _621
REMARK  249  A    between atoms: _621  and  _622
REMARK  250  A    between atoms: _621  and  _624
REMARK  251  A    between atoms: _624  and  _625
REMARK  252  A    between atoms: _628  and  _630
REMARK  253  A    between atoms: _630  and  _631
REMARK  254  A    between atoms: _630  and  _633
REMARK  255  A    between atoms: _633  and  _634
REMARK  256  A    between atoms: _636  and  _638
REMARK  257  A    between atoms: _638  and  _639
REMARK  258  A    between atoms: _638  and  _641
REMARK  259  A    between atoms: _641  and  _642
REMARK  260  A    between atoms: _642  and  _643
REMARK  261  A    between atoms: _648  and  _650
REMARK  262  A    between atoms: _650  and  _651
REMARK  263  A    between atoms: _650  and  _653
REMARK  264  A    between atoms: _653  and  _654
REMARK  265  A    between atoms: _656  and  _658
REMARK  266  A    between atoms: _658  and  _659
REMARK  267  A    between atoms: _658  and  _661
REMARK  268  A    between atoms: _661  and  _662
REMARK  269  A    between atoms: _665  and  _667
REMARK  270  A    between atoms: _667  and  _668
REMARK  271  A    between atoms: _667  and  _670
REMARK  272  A    between atoms: _670  and  _671
REMARK  273  A    between atoms: _674  and  _676
REMARK  274  A    between atoms: _676  and  _677
REMARK  275  A    between atoms: _676  and  _679
REMARK  276  A    between atoms: _682  and  _684
REMARK  277  A    between atoms: _684  and  _685
REMARK  278  A    between atoms: _684  and  _687
REMARK  279  A    between atoms: _687  and  _688
REMARK  280  A    between atoms: _688  and  _689
REMARK  281  A    between atoms: _691  and  _693
REMARK  282  A    between atoms: _693  and  _694
REMARK  283  A    between atoms: _696  and  _698
REMARK  284  A    between atoms: _698  and  _699
REMARK  285  A    between atoms: _702  and  _704
REMARK  286  A    between atoms: _704  and  _705
REMARK  287  A    between atoms: _704  and  _707
REMARK  288  A    between atoms: _710  and  _712
REMARK  289  A    between atoms: _712  and  _713
REMARK  290  A    between atoms: _712  and  _715
REMARK  291  A    between atoms: _715  and  _716
REMARK  292  A    between atoms: _716  and  _717
REMARK  293  A    between atoms: _719  and  _721
REMARK  294  A    between atoms: _721  and  _722
REMARK  295  A    between atoms: _721  and  _724
REMARK  296  A    between atoms: _724  and  _725
REMARK  297  A    between atoms: _725  and  _726
REMARK                            x       y       z     vdW  Elec       q    Type
REMARK                         _______ _______ _______ _____ _____    ______ ____
ROOT
ATOM      1  C   GLY A   4       8.206  -8.689  33.426  0.00  0.00    +0.243 C 
ATOM      2  N   GLN A   5       7.140  -9.477  33.369  0.00  0.00    -0.297 N 
ATOM      3  H   GLN A   5       7.209 -10.439  33.758  0.00  0.00    +0.150 HD
ATOM      4  O   GLY A   4       8.236  -7.536  32.980  0.00  0.00    -0.273 OA
ENDROOT
BRANCH   1   5
ATOM      5  CA  GLY A   4       9.412  -9.319  34.074  0.00  0.00    +0.176 C 
BRANCH   5   7
ATOM      6  C   SER A   3      11.514  -8.259  34.524  0.00  0.00    +0.243 C 
ATOM      7  N   GLY A   4      10.212  -8.338  34.764  0.00  0.00    -0.295 N 
ATOM      8  H   GLY A   4       9.769  -7.693  35.449  0.00  0.00    +0.150 HD
ATOM      9  O   SER A   3      12.102  -9.001  33.735  0.00  0.00    -0.273 OA
BRANCH   6  10
ATOM     10  CA  SER A   3      12.253  -7.189  35.313  0.00  0.00    +0.178 C 
BRANCH  10  13
ATOM     11  C   LYS A   2      11.701  -6.624  37.613  0.00  0.00    +0.241 C 
ATOM     12  O   LYS A   2      11.455  -5.445  37.318  0.00  0.00    -0.273 OA
ATOM     13  N   SER A   3      12.114  -7.524  36.728  0.00  0.00    -0.295 N 
ATOM     14  H   SER A   3      12.343  -8.486  37.049  0.00  0.00    +0.150 HD
BRANCH  11  15
ATOM     15  CA  LYS A   2      11.564  -7.116  39.042  0.00  0.00    +0.149 C 
BRANCH  15  17
ATOM     16  C   GLY A   1       9.680  -8.542  38.350  0.00  0.00    +0.240 C 
ATOM     17  N   LYS A   2      10.744  -8.324  39.126  0.00  0.00    -0.297 N 
ATOM     18  H   LYS A   2      11.003  -9.049  39.825  0.00  0.00    +0.150 HD
ATOM     19  O   GLY A   1       9.305  -7.760  37.473  0.00  0.00    -0.274 OA
BRANCH  16  20
ATOM     20  CA  GLY A   1       8.935  -9.844  38.613  0.00  0.00    +0.169 C 
BRANCH  20  21
ATOM     21  N   GLY A   1       8.986 -10.146  40.037  0.00  0.00    -0.236 NA
ATOM     22  H   GLY A   1       9.867 -10.527  40.438  0.00  0.00    +0.142 HD
ENDBRANCH  20  21
ENDBRANCH  16  20
ENDBRANCH  15  17
BRANCH  15  23
ATOM     23  CB  LYS A   2      12.954  -7.365  39.635  0.00  0.00    +0.029 C 
BRANCH  23  24
ATOM     24  CG  LYS A   2      13.767  -6.083  39.833  0.00  0.00    +0.000 C 
BRANCH  24  25
ATOM     25  CD  LYS A   2      15.085  -6.339  40.565  0.00  0.00    -0.024 C 
BRANCH  25  26
ATOM     26  CE  LYS A   2      15.819  -5.035  40.833  0.00  0.00    -0.086 C 
BRANCH  26  27
ATOM     27  NZ  LYS A   2      17.176  -5.282  41.394  0.00  0.00    +0.380 N 
ATOM     28  HZ1 LYS A   2      17.090  -5.803  42.290  0.00  0.00    -0.089 HD
ATOM     29  HZ2 LYS A   2      17.650  -4.372  41.565  0.00  0.00    -0.089 HD
ATOM     30  HZ3 LYS A   2      17.733  -5.842  40.717  0.00  0.00    -0.089 HD
ENDBRANCH  26  27
ENDBRANCH  25  26
ENDBRANCH  24  25
ENDBRANCH  23  24
ENDBRANCH  15  23
ENDBRANCH  11  15
ENDBRANCH  10  13
BRANCH  10  31
ATOM     31  CB  SER A   3      13.734  -7.123  34.892  0.00  0.00    +0.166 C 
BRANCH  31  32
ATOM     32  OG  SER A   3      14.314  -5.870  35.236  0.00  0.00    -0.380 OA
ATOM     33  H   SER A   3      15.263  -5.858  34.954  0.00  0.00    +0.211 HD
ENDBRANCH  31  32
ENDBRANCH  10  31
ENDBRANCH   6  10
ENDBRANCH   5   7
ENDBRANCH   1   5
BRANCH   2  34
ATOM     34  CA  GLN A   5       5.886  -9.052  32.787  0.00  0.00    +0.149 C 
BRANCH  34  35
ATOM     35  C   GLN A   5       4.871  -8.843  33.886  0.00  0.00    +0.241 C 
ATOM     36  N   GLY A   6       5.075  -7.820  34.698  0.00  0.00    -0.295 N 
ATOM     37  H   GLY A   6       5.914  -7.216  34.584  0.00  0.00    +0.150 HD
ATOM     38  O   GLN A   5       3.922  -9.606  34.010  0.00  0.00    -0.273 OA
BRANCH  36  39
ATOM     39  CA  GLY A   6       4.121  -7.553  35.742  0.00  0.00    +0.176 C 
BRANCH  39  40
ATOM     40  C   GLY A   6       4.615  -7.950  37.102  0.00  0.00    +0.243 C 
ATOM     41  N   TYR A   7       4.173  -7.191  38.093  0.00  0.00    -0.298 N 
ATOM     42  H   TYR A   7       3.538  -6.398  37.871  0.00  0.00    +0.150 HD
ATOM     43  O   GLY A   6       5.368  -8.905  37.256  0.00  0.00    -0.273 OA
BRANCH  41  44
ATOM     44  CA  TYR A   7       4.537  -7.422  39.465  0.00  0.00    +0.141 C 
BRANCH  44  45
ATOM     45  C   TYR A   7       3.489  -8.258  40.162  0.00  0.00    +0.227 C 
ATOM     46  O   TYR A   7       2.323  -7.893  40.210  0.00  0.00    -0.286 OA
ENDBRANCH  44  45
BRANCH  44  47
ATOM     47  CB  TYR A   7       4.699  -6.087  40.169  0.00  0.00    +0.054 C 
BRANCH  47  48
ATOM     48  CG  TYR A   7       5.838  -5.279  39.605  0.00  0.00    -0.020 A 
ATOM     49  CD2 TYR A   7       7.128  -5.468  40.079  0.00  0.00    -0.001 A 
ATOM     50  CE2 TYR A   7       8.189  -4.744  39.574  0.00  0.00    +0.036 A 
ATOM     51  CZ  TYR A   7       7.971  -3.814  38.579  0.00  0.00    +0.134 A 
ATOM     52  CE1 TYR A   7       6.686  -3.596  38.076  0.00  0.00    +0.036 A 
ATOM     53  CD1 TYR A   7       5.631  -4.331  38.592  0.00  0.00    -0.001 A 
BRANCH  51  54
ATOM     54  OH  TYR A   7       9.056  -3.126  38.104  0.00  0.00    -0.506 OA
ATOM     55  HH  TYR A   7       8.763  -2.496  37.399  0.00  0.00    +0.292 HD
ENDBRANCH  51  54
ENDBRANCH  47  48
ENDBRANCH  44  47
ENDBRANCH  41  44
ENDBRANCH  39  40
ENDBRANCH  36  39
ENDBRANCH  34  35
BRANCH  34  56
ATOM     56  CB  GLN A   5       5.355 -10.111  31.826  0.00  0.00    +0.039 C 
BRANCH  56  57
ATOM     57  CG  GLN A   5       6.041 -10.154  30.482  0.00  0.00    +0.087 C 
BRANCH  57  58
ATOM     58  CD  GLN A   5       7.513 -10.419  30.590  0.00  0.00    +0.219 C 
ATOM     59  OE1 GLN A   5       8.301  -9.505  30.843  0.00  0.00    -0.275 OA
ATOM     60  NE2 GLN A   5       7.901 -11.680  30.411  0.00  0.00    -0.329 N 
ATOM     61 HE21 GLN A   5       8.908 -11.929  30.483  0.00  0.00    +0.145 HD
ATOM     62 HE22 GLN A   5       7.197 -12.416  30.199  0.00  0.00    +0.145 HD
ENDBRANCH  57  58
ENDBRANCH  56  57
ENDBRANCH  34  56
ENDBRANCH   2  34
TORSDOF 27
REMARK  Name = ../refined-set-2016/2p4j/2p4j_pocket.pdb
REMARK  297 active torsions:
REMARK  status: ('A' for Active; 'I' for Inactive)
REMARK    1  A    between atoms: _1  and  _3
REMARK    2  A    between atoms: _3  and  _4
REMARK    3  A    between atoms: _6  and  _8
REMARK    4  A    between atoms: _8  and  _9
REMARK    5  A    between atoms: _8  and  _11
REMARK    6  A    between atoms: _11  and  _12
REMARK    7  A    between atoms: _12  and  _13
REMARK    8  A    between atoms: _13  and  _14
REMARK    9  A    between atoms: _14  and  _15
REMARK   10  A    between atoms: _19  and  _21
REMARK   11  A    between atoms: _21  and  _22
REMARK   12  A    between atoms: _21  and  _24
REMARK   13  A    between atoms: _24  and  _25
REMARK   14  A    between atoms: _27  and  _29
REMARK   15  A    between atoms: _29  and  _30
REMARK   16  A    between atoms: _32  and  _34
REMARK   17  A    between atoms: _34  and  _35
REMARK   18  A    between atoms: _34  and  _37
REMARK   19  A    between atoms: _37  and  _38
REMARK   20  A    between atoms: _38  and  _39
REMARK   21  A    between atoms: _44  and  _46
REMARK   22  A    between atoms: _46  and  _47
REMARK   23  A    between atoms: _49  and  _51
REMARK   24  A    between atoms: _51  and  _52
REMARK   25  A    between atoms: _51  and  _54
REMARK   26  A    between atoms: _54  and  _55
REMARK   27  A    between atoms: _60  and  _61
REMARK   28  A    between atoms: _63  and  _65
REMARK   29  A    between atoms: _65  and  _66
REMARK   30  A    between atoms: _65  and  _68
REMARK   31  A    between atoms: _68  and  _69
REMARK   32  A    between atoms: _72  and  _74
REMARK   33  A    between atoms: _74  and  _75
REMARK   34  A    between atoms: _74  and  _77
REMARK   35  A    between atoms: _80  and  _82
REMARK   36  A    between atoms: _82  and  _83
REMARK   37  A    between atoms: _82  and  _85
REMARK   38  A    between atoms: _85  and  _86
REMARK   39  A    between atoms: _89  and  _91
REMARK   40  A    between atoms: _91  and  _92
REMARK   41  A    between atoms: _91  and  _94
REMARK   42  A    between atoms: _94  and  _95
REMARK   43  A    between atoms: _98  and  _100
REMARK   44  A    between atoms: _100  and  _101
REMARK   45  A    between atoms: _103  and  _105
REMARK   46  A    between atoms: _105  and  _106
REMARK   47  A    between atoms: _105  and  _108
REMARK   48  A    between atoms: _108  and  _109
REMARK   49  A    between atoms: _111  and  _113
REMARK   50  A    between atoms: _113  and  _114
REMARK   51  A    between atoms: _113  and  _116
REMARK   52  A    between atoms: _116  and  _117
REMARK   53  A    between atoms: _119  and  _121
REMARK   54  A    between atoms: _121  and  _122
REMARK   55  A    between atoms: _121  and  _124
REMARK   56  A    between atoms: _124  and  _125
REMARK   57  A    between atoms: _130  and  _132
REMARK   58  A    between atoms: _132  and  _133
REMARK   59  A    between atoms: _132  and  _135
REMARK   60  A    between atoms: _135  and  _136
REMARK   61  A    between atoms: _141  and  _142
REMARK   62  A    between atoms: _144  and  _146
REMARK   63  A    between atoms: _146  and  _147
REMARK   64  A    between atoms: _146  and  _149
REMARK   65  A    between atoms: _153  and  _154
REMARK   66  A    between atoms: _159  and  _161
REMARK   67  A    between atoms: _161  and  _162
REMARK   68  A    between atoms: _161  and  _164
REMARK   69  A    between atoms: _164  and  _165
REMARK   70  A    between atoms: _170  and  _171
REMARK   71  A    between atoms: _173  and  _175
REMARK   72  A    between atoms: _175  and  _176
REMARK   73  A    between atoms: _175  and  _178
REMARK   74  A    between atoms: _178  and  _179
REMARK   75  A    between atoms: _182  and  _184
REMARK   76  A    between atoms: _184  and  _185
REMARK   77  A    between atoms: _184  and  _187
REMARK   78  A    between atoms: _187  and  _188
REMARK   79  A    between atoms: _188  and  _189
REMARK   80  A    between atoms: _194  and  _196
REMARK   81  A    between atoms: _196  and  _197
REMARK   82  A    between atoms: _199  and  _201
REMARK   83  A    between atoms: _201  and  _202
REMARK   84  A    between atoms: _201  and  _204
REMARK   85  A    between atoms: _204  and  _205
REMARK   86  A    between atoms: _205  and  _206
REMARK   87  A    between atoms: _206  and  _207
REMARK   88  A    between atoms: _207  and  _208
REMARK   89  A    between atoms: _212  and  _214
REMARK   90  A    between atoms: _214  and  _215
REMARK   91  A    between atoms: _214  and  _217
REMARK   92  A    between atoms: _217  and  _218
REMARK   93  A    between atoms: _228  and  _230
REMARK   94  A    between atoms: _230  and  _231
REMARK   95  A    between atoms: _230  and  _233
REMARK   96  A    between atoms: _233  and  _234
REMARK   97  A    between atoms: _237  and  _239
REMARK   98  A    between atoms: _239  and  _240
REMARK   99  A    between atoms: _239  and  _242
REMARK  100  A    between atoms: _242  and  _243
REMARK  101  A    between atoms: _243  and  _244
REMARK  102  A    between atoms: _244  and  _245
REMARK  103  A    between atoms: _245  and  _246
REMARK  104  A    between atoms: _250  and  _252
REMARK  105  A    between atoms: _252  and  _253
REMARK  106  A    between atoms: _252  and  _255
REMARK  107  A    between atoms: _255  and  _256
REMARK  108  A    between atoms: _262  and  _264
REMARK  109  A    between atoms: _264  and  _265
REMARK  110  A    between atoms: _264  and  _267
REMARK  111  A    between atoms: _267  and  _268
REMARK  112  A    between atoms: _274  and  _276
REMARK  113  A    between atoms: _276  and  _277
REMARK  114  A    between atoms: _276  and  _279
REMARK  115  A    between atoms: _279  and  _280
REMARK  116  A    between atoms: _283  and  _285
REMARK  117  A    between atoms: _285  and  _286
REMARK  118  A    between atoms: _285  and  _288
REMARK  119  A    between atoms: _288  and  _289
REMARK  120  A    between atoms: _291  and  _293
REMARK  121  A    between atoms: _293  and  _294
REMARK  122  A    between atoms: _293  and  _296
REMARK  123  A    between atoms: _296  and  _297
REMARK  124  A    between atoms: _307  and  _309
REMARK  125  A    between atoms: _309  and  _310
REMARK  126  A    between atoms: _312  and  _314
REMARK  127  A    between atoms: _314  and  _315
REMARK  128  A    between atoms: _314  and  _317
REMARK  129  A    between atoms: _317  and  _318
REMARK  130  A    between atoms: _321  and  _323
REMARK  131  A    between atoms: _323  and  _324
REMARK  132  A    between atoms: _323  and  _326
REMARK  133  A    between atoms: _326  and  _327
REMARK  134  A    between atoms: _330  and  _332
REMARK  135  A    between atoms: _332  and  _333
REMARK  136  A    between atoms: _332  and  _335
REMARK  137  A    between atoms: _335  and  _336
REMARK  138  A    between atoms: _339  and  _341
REMARK  139  A    between atoms: _341  and  _342
REMARK  140  A    between atoms: _345  and  _347
REMARK  141  A    between atoms: _347  and  _348
REMARK  142  A    between atoms: _347  and  _350
REMARK  143  A    between atoms: _350  and  _351
REMARK  144  A    between atoms: _356  and  _357
REMARK  145  A    between atoms: _359  and  _361
REMARK  146  A    between atoms: _361  and  _362
REMARK  147  A    between atoms: _361  and  _364
REMARK  148  A    between atoms: _364  and  _365
REMARK  149  A    between atoms: _365  and  _366
REMARK  150  A    between atoms: _369  and  _371
REMARK  151  A    between atoms: _371  and  _372
REMARK  152  A    between atoms: _371  and  _374
REMARK  153  A    between atoms: _374  and  _375
REMARK  154  A    between atoms: _378  and  _380
REMARK  155  A    between atoms: _380  and  _381
REMARK  156  A    between atoms: _384  and  _386
REMARK  157  A    between atoms: _386  and  _387
REMARK  158  A    between atoms: _386  and  _389
REMARK  159  A    between atoms: _389  and  _390
REMARK  160  A    between atoms: _390  and  _391
REMARK  161  A    between atoms: _391  and  _392
REMARK  162  A    between atoms: _401  and  _403
REMARK  163  A    between atoms: _403  and  _404
REMARK  164  A    between atoms: _403  and  _406
REMARK  165  A    between atoms: _406  and  _407
REMARK  166  A    between atoms: _410  and  _412
REMARK  167  A    between atoms: _412  and  _413
REMARK  168  A    between atoms: _412  and  _415
REMARK  169  A    between atoms: _415  and  _416
REMARK  170  A    between atoms: _426  and  _428
REMARK  171  A    between atoms: _428  and  _429
REMARK  172  A    between atoms: _428  and  _431
REMARK  173  A    between atoms: _431  and  _432
REMARK  174  A    between atoms: _437  and  _438
REMARK  175  A    between atoms: _440  and  _442
REMARK  176  A    between atoms: _442  and  _443
REMARK  177  A    between atoms: _442  and  _445
REMARK  178  A    between atoms: _445  and  _446
REMARK  179  A    between atoms: _451  and  _452
REMARK  180  A    between atoms: _454  and  _456
REMARK  181  A    between atoms: _456  and  _457
REMARK  182  A    between atoms: _456  and  _459
REMARK  183  A    between atoms: _459  and  _460
REMARK  184  A    between atoms: _460  and  _461
REMARK  185  A    between atoms: _461  and  _462
REMARK  186  A    between atoms: _462  and  _463
REMARK  187  A    between atoms: _467  and  _469
REMARK  188  A    between atoms: _469  and  _470
REMARK  189  A    between atoms: _469  and  _472
REMARK  190  A    between atoms: _472  and  _473
REMARK  191  A    between atoms: _476  and  _478
REMARK  192  A    between atoms: _478  and  _479
REMARK  193  A    between atoms: _478  and  _481
REMARK  194  A    between atoms: _484  and  _486
REMARK  195  A    between atoms: _486  and  _487
REMARK  196  A    between atoms: _486  and  _489
REMARK  197  A    between atoms: _489  and  _490
REMARK  198  A    between atoms: _493  and  _495
REMARK  199  A    between atoms: _495  and  _496
REMARK  200  A    between atoms: _495  and  _498
REMARK  201  A    between atoms: _498  and  _499
REMARK  202  A    between atoms: _501  and  _503
REMARK  203  A    between atoms: _503  and  _504
REMARK  204  A    between atoms: _506  and  _508
REMARK  205  A    between atoms: _508  and  _509
REMARK  206  A    between atoms: _508  and  _511
REMARK  207  A    between atoms: _511  and  _512
REMARK  208  A    between atoms: _515  and  _517
REMARK  209  A    between atoms: _517  and  _518
REMARK  210  A    between atoms: _517  and  _520
REMARK  211  A    between atoms: _520  and  _521
REMARK  212  A    between atoms: _524  and  _526
REMARK  213  A    between atoms: _526  and  _527
REMARK  214  A    between atoms: _526  and  _529
REMARK  215  A    between atoms: _529  and  _530
REMARK  216  A    between atoms: _535  and  _537
REMARK  217  A    between atoms: _537  and  _538
REMARK  218  A    between atoms: _537  and  _540
REMARK  219  A    between atoms: _540  and  _541
REMARK  220  A    between atoms: _544  and  _546
REMARK  221  A    between atoms: _546  and  _547
REMARK  222  A    between atoms: _546  and  _549
REMARK  223  A    between atoms: _549  and  _550
REMARK  224  A    between atoms: _550  and  _551
REMARK  225  A    between atoms: _551  and  _552
REMARK  226  A    between atoms: _561  and  _563
REMARK  227  A    between atoms: _563  and  _564
REMARK  228  A    between atoms: _563  and  _566
REMARK  229  A    between atoms: _566  and  _567
REMARK  230  A    between atoms: _570  and  _572
REMARK  231  A    between atoms: _572  and  _573
REMARK  232  A    between atoms: _572  and  _575
REMARK  233  A    between atoms: _575  and  _576
REMARK  234  A    between atoms: _579  and  _581
REMARK  235  A    between atoms: _581  and  _582
REMARK  236  A    between atoms: _584  and  _586
REMARK  237  A    between atoms: _586  and  _587
REMARK  238  A    between atoms: _586  and  _589
REMARK  239  A    between atoms: _589  and  _590
REMARK  240  A    between atoms: _590  and  _591
REMARK  241  A    between atoms: _591  and  _592
REMARK  242  A    between atoms: _601  and  _603
REMARK  243  A    between atoms: _603  and  _604
REMARK  244  A    between atoms: _603  and  _606
REMARK  245  A    between atoms: _606  and  _607
REMARK  246  A    between atoms: _613  and  _615
REMARK  247  A    between atoms: _615  and  _616
REMARK  248  A    between atoms: _619  and  _621
REMARK  249  A    between atoms: _621  and  _622
REMARK  250  A    between atoms: _621  and  _624
REMARK  251  A    between atoms: _624  and  _625
REMARK  252  A    between atoms: _628  and  _630
REMARK  253  A    between atoms: _630  and  _631
REMARK  254  A    between atoms: _630  and  _633
REMARK  255  A    between atoms: _633  and  _634
REMARK  256  A    between atoms: _636  and  _638
REMARK  257  A    between atoms: _638  and  _639
REMARK  258  A    between atoms: _638  and  _641
REMARK  259  A    between atoms: _641  and  _642
REMARK  260  A    between atoms: _642  and  _643
REMARK  261  A    between atoms: _648  and  _650
REMARK  262  A    between atoms: _650  and  _651
REMARK  263  A    between atoms: _650  and  _653
REMARK  264  A    between atoms: _653  and  _654
REMARK  265  A    between atoms: _656  and  _658
REMARK  266  A    between atoms: _658  and  _659
REMARK  267  A    between atoms: _658  and  _661
REMARK  268  A    between atoms: _661  and  _662
REMARK  269  A    between atoms: _665  and  _667
REMARK  270  A    between atoms: _667  and  _668
REMARK  271  A    between atoms: _667  and  _670
REMARK  272  A    between atoms: _670  and  _671
REMARK  273  A    between atoms: _674  and  _676
REMARK  274  A    between atoms: _676  and  _677
REMARK  275  A    between atoms: _676  and  _679
REMARK  276  A    between atoms: _682  and  _684
REMARK  277  A    between atoms: _684  and  _685
REMARK  278  A    between atoms: _684  and  _687
REMARK  279  A    between atoms: _687  and  _688
REMARK  280  A    between atoms: _688  and  _689
REMARK  281  A    between atoms: _691  and  _693
REMARK  282  A    between atoms: _693  and  _694
REMARK  283  A    between atoms: _696  and  _698
REMARK  284  A    between atoms: _698  and  _699
REMARK  285  A    between atoms: _702  and  _704
REMARK  286  A    between atoms: _704  and  _705
REMARK  287  A    between atoms: _704  and  _707
REMARK  288  A    between atoms: _710  and  _712
REMARK  289  A    between atoms: _712  and  _713
REMARK  290  A    between atoms: _712  and  _715
REMARK  291  A    between atoms: _715  and  _716
REMARK  292  A    between atoms: _716  and  _717
REMARK  293  A    between atoms: _719  and  _721
REMARK  294  A    between atoms: _721  and  _722
REMARK  295  A    between atoms: _721  and  _724
REMARK  296  A    between atoms: _724  and  _725
REMARK  297  A    between atoms: _725  and  _726
REMARK                            x       y       z     vdW  Elec       q    Type
REMARK                         _______ _______ _______ _____ _____    ______ ____
ROOT
ATOM      1  C   THR A   4      -5.649  -0.628  39.210  0.00  0.00    +0.243 C 
ATOM      2  O   THR A   4      -6.378   0.320  39.468  0.00  0.00    -0.273 OA
ATOM      3  N   GLY A   5      -5.582  -1.182  38.001  0.00  0.00    -0.295 N 
ATOM      4  H   GLY A   5      -4.957  -1.998  37.843  0.00  0.00    +0.150 HD
ENDROOT
BRANCH   1   5
ATOM      5  CA  THR A   4      -4.785  -1.240  40.295  0.00  0.00    +0.176 C 
BRANCH   5   8
ATOM      6  C   ASP A   3      -4.316  -3.481  39.619  0.00  0.00    +0.241 C 
ATOM      7  O   ASP A   3      -5.473  -3.793  39.877  0.00  0.00    -0.273 OA
ATOM      8  N   THR A   4      -3.870  -2.241  39.775  0.00  0.00    -0.295 N 
ATOM      9  H   THR A   4      -2.890  -1.992  39.531  0.00  0.00    +0.150 HD
BRANCH   6  10
ATOM     10  CA  ASP A   3      -3.346  -4.522  39.084  0.00  0.00    +0.160 C 
BRANCH  10  12
ATOM     11  C   VAL A   2      -1.530  -5.715  40.143  0.00  0.00    +0.241 C 
ATOM     12  N   ASP A   3      -2.811  -5.365  40.136  0.00  0.00    -0.297 N 
ATOM     13  H   ASP A   3      -3.439  -5.700  40.895  0.00  0.00    +0.150 HD
ATOM     14  O   VAL A   2      -0.733  -5.351  39.273  0.00  0.00    -0.273 OA
BRANCH  11  15
ATOM     15  CA  VAL A   2      -1.087  -6.636  41.275  0.00  0.00    +0.148 C 
BRANCH  15  17
ATOM     16  C   LEU A   1      -1.283  -8.701  40.011  0.00  0.00    +0.238 C 
ATOM     17  N   VAL A   2      -0.525  -7.778  40.581  0.00  0.00    -0.297 N 
ATOM     18  H   VAL A   2       0.509  -7.875  40.529  0.00  0.00    +0.150 HD
ATOM     19  O   LEU A   1      -2.497  -8.691  40.055  0.00  0.00    -0.274 OA
BRANCH  16  20
ATOM     20  CA  LEU A   1      -0.547  -9.811  39.315  0.00  0.00    +0.145 C 
BRANCH  20  21
ATOM     21  N   LEU A   1      -0.999 -11.102  39.820  0.00  0.00    -0.238 NA
ATOM     22  H   LEU A   1      -1.608 -11.691  39.217  0.00  0.00    +0.142 HD
ENDBRANCH  20  21
BRANCH  20  23
ATOM     23  CB  LEU A   1      -0.804  -9.691  37.824  0.00  0.00    +0.026 C 
BRANCH  23  24
ATOM     24  CG  LEU A   1      -0.550  -8.297  37.263  0.00  0.00    +0.002 C 
ATOM     25  CD2 LEU A   1       0.885  -8.211  36.773  0.00  0.00    +0.000 C 
ATOM     26  CD1 LEU A   1      -1.498  -8.036  36.118  0.00  0.00    +0.000 C 
ENDBRANCH  23  24
ENDBRANCH  20  23
ENDBRANCH  16  20
ENDBRANCH  15  17
BRANCH  15  27
ATOM     27  CB  VAL A   2      -0.014  -5.960  42.162  0.00  0.00    +0.027 C 
ATOM     28  CG2 VAL A   2       0.614  -6.989  43.072  0.00  0.00    +0.002 C 
ATOM     29  CG1 VAL A   2      -0.631  -4.851  42.990  0.00  0.00    +0.002 C 
ENDBRANCH  15  27
ENDBRANCH  11  15
ENDBRANCH  10  12
BRANCH  10  30
ATOM     30  CB  ASP A   3      -4.065  -5.399  38.061  0.00  0.00    +0.143 C 
BRANCH  30  31
ATOM     31  CG  ASP A   3      -4.529  -4.616  36.857  0.00  0.00    +0.367 C 
ATOM     32  OD2 ASP A   3      -5.755  -4.460  36.656  0.00  0.00    -0.246 OA
ATOM     33  OD1 ASP A   3      -3.647  -4.151  36.116  0.00  0.00    -0.246 OA
ENDBRANCH  30  31
ENDBRANCH  10  30
ENDBRANCH   6  10
ENDBRANCH   5   8
BRANCH   5  34
ATOM     34  CB  THR A   4      -4.044  -0.127  41.020  0.00  0.00    +0.137 C 
ATOM     35  CG2 THR A   4      -3.094  -0.715  42.047  0.00  0.00    +0.034 C 
BRANCH  34  36
ATOM     36  OG1 THR A   4      -3.298   0.643  40.073  0.00  0.00    -0.382 OA
ATOM     37  HG1 THR A   4      -3.917   1.036  39.408  0.00  0.00    +0.210 HD
ENDBRANCH  34  36
ENDBRANCH   5  34
ENDBRANCH   1   5
BRANCH   3  38
ATOM     38  CA  GLY A   5      -6.374  -0.658  36.899  0.00  0.00    +0.176 C 
BRANCH  38  39
ATOM     39  C   GLY A   5      -7.717  -1.342  36.689  0.00  0.00    +0.243 C 
ATOM     40  N   SER A   6      -7.996  -2.394  37.451  0.00  0.00    -0.295 N 
ATOM     41  H   SER A   6      -7.291  -2.726  38.140  0.00  0.00    +0.150 HD
ATOM     42  O   GLY A   5      -8.485  -0.941  35.827  0.00  0.00    -0.273 OA
BRANCH  40  43
ATOM     43  CA  SER A   6      -9.273  -3.092  37.339  0.00  0.00    +0.178 C 
BRANCH  43  44
ATOM     44  C   SER A   6      -9.769  -3.460  38.735  0.00  0.00    +0.243 C 
ATOM     45  O   SER A   6      -9.141  -3.097  39.737  0.00  0.00    -0.273 OA
ATOM     46  N   SER A   7     -10.883  -4.181  38.806  0.00  0.00    -0.295 N 
ATOM     47  H   SER A   7     -11.352  -4.501  37.934  0.00  0.00    +0.150 HD
BRANCH  46  48
ATOM     48  CA  SER A   7     -11.447  -4.523  40.101  0.00  0.00    +0.178 C 
BRANCH  48  49
ATOM     49  C   SER A   7     -11.910  -5.970  40.214  0.00  0.00    +0.243 C 
ATOM     50  O   SER A   7     -12.679  -6.322  41.108  0.00  0.00    -0.273 OA
ATOM     51  N   ASN A   8     -11.445  -6.811  39.307  0.00  0.00    -0.298 N 
ATOM     52  H   ASN A   8     -10.814  -6.470  38.554  0.00  0.00    +0.150 HD
BRANCH  51  53
ATOM     53  CA  ASN A   8     -11.817  -8.207  39.365  0.00  0.00    +0.146 C 
BRANCH  53  54
ATOM     54  C   ASN A   8     -10.672  -9.080  39.869  0.00  0.00    +0.227 C 
ATOM     55  O   ASN A   8      -9.513  -8.914  39.465  0.00  0.00    -0.286 OA
ENDBRANCH  53  54
BRANCH  53  56
ATOM     56  CB  ASN A   8     -12.265  -8.703  37.984  0.00  0.00    +0.112 C 
BRANCH  56  57
ATOM     57  CG  ASN A   8     -13.747  -8.454  37.719  0.00  0.00    +0.222 C 
ATOM     58  ND2 ASN A   8     -14.601  -9.309  38.277  0.00  0.00    -0.329 N 
ATOM     59 HD21 ASN A   8     -14.245 -10.097  38.854  0.00  0.00    +0.145 HD
ATOM     60 HD22 ASN A   8     -15.624  -9.189  38.136  0.00  0.00    +0.145 HD
ATOM     61  OD1 ASN A   8     -14.119  -7.505  37.027  0.00  0.00    -0.275 OA
ENDBRANCH  56  57
ENDBRANCH  53  56
ENDBRANCH  51  53
ENDBRANCH  48  49
BRANCH  48  62
ATOM     62  CB  SER A   7     -12.609  -3.576  40.406  0.00  0.00    +0.166 C 
BRANCH  62  63
ATOM     63  OG  SER A   7     -12.267  -2.256  40.034  0.00  0.00    -0.380 OA
ATOM     64  H   SER A   7     -13.024  -1.651  40.235  0.00  0.00    +0.211 HD
ENDBRANCH  62  63
ENDBRANCH  48  62
ENDBRANCH  46  48
ENDBRANCH  43  44
BRANCH  43  65
ATOM     65  CB  SER A   6      -9.160  -4.338  36.444  0.00  0.00    +0.166 C 
BRANCH  65  66
ATOM     66  OG  SER A   6      -8.057  -5.139  36.784  0.00  0.00    -0.380 OA
ATOM     67  H   SER A   6      -7.225  -4.612  36.684  0.00  0.00    +0.211 HD
ENDBRANCH  65  66
ENDBRANCH  43  65
ENDBRANCH  40  43
ENDBRANCH  38  39
ENDBRANCH   3  38
TORSDOF 29
REMARK  Name = ../refined-set-2016/2p4j/2p4j_pocket.pdb
REMARK  297 active torsions:
REMARK  status: ('A' for Active; 'I' for Inactive)
REMARK    1  A    between atoms: _1  and  _3
REMARK    2  A    between atoms: _3  and  _4
REMARK    3  A    between atoms: _6  and  _8
REMARK    4  A    between atoms: _8  and  _9
REMARK    5  A    between atoms: _8  and  _11
REMARK    6  A    between atoms: _11  and  _12
REMARK    7  A    between atoms: _12  and  _13
REMARK    8  A    between atoms: _13  and  _14
REMARK    9  A    between atoms: _14  and  _15
REMARK   10  A    between atoms: _19  and  _21
REMARK   11  A    between atoms: _21  and  _22
REMARK   12  A    between atoms: _21  and  _24
REMARK   13  A    between atoms: _24  and  _25
REMARK   14  A    between atoms: _27  and  _29
REMARK   15  A    between atoms: _29  and  _30
REMARK   16  A    between atoms: _32  and  _34
REMARK   17  A    between atoms: _34  and  _35
REMARK   18  A    between atoms: _34  and  _37
REMARK   19  A    between atoms: _37  and  _38
REMARK   20  A    between atoms: _38  and  _39
REMARK   21  A    between atoms: _44  and  _46
REMARK   22  A    between atoms: _46  and  _47
REMARK   23  A    between atoms: _49  and  _51
REMARK   24  A    between atoms: _51  and  _52
REMARK   25  A    between atoms: _51  and  _54
REMARK   26  A    between atoms: _54  and  _55
REMARK   27  A    between atoms: _60  and  _61
REMARK   28  A    between atoms: _63  and  _65
REMARK   29  A    between atoms: _65  and  _66
REMARK   30  A    between atoms: _65  and  _68
REMARK   31  A    between atoms: _68  and  _69
REMARK   32  A    between atoms: _72  and  _74
REMARK   33  A    between atoms: _74  and  _75
REMARK   34  A    between atoms: _74  and  _77
REMARK   35  A    between atoms: _80  and  _82
REMARK   36  A    between atoms: _82  and  _83
REMARK   37  A    between atoms: _82  and  _85
REMARK   38  A    between atoms: _85  and  _86
REMARK   39  A    between atoms: _89  and  _91
REMARK   40  A    between atoms: _91  and  _92
REMARK   41  A    between atoms: _91  and  _94
REMARK   42  A    between atoms: _94  and  _95
REMARK   43  A    between atoms: _98  and  _100
REMARK   44  A    between atoms: _100  and  _101
REMARK   45  A    between atoms: _103  and  _105
REMARK   46  A    between atoms: _105  and  _106
REMARK   47  A    between atoms: _105  and  _108
REMARK   48  A    between atoms: _108  and  _109
REMARK   49  A    between atoms: _111  and  _113
REMARK   50  A    between atoms: _113  and  _114
REMARK   51  A    between atoms: _113  and  _116
REMARK   52  A    between atoms: _116  and  _117
REMARK   53  A    between atoms: _119  and  _121
REMARK   54  A    between atoms: _121  and  _122
REMARK   55  A    between atoms: _121  and  _124
REMARK   56  A    between atoms: _124  and  _125
REMARK   57  A    between atoms: _130  and  _132
REMARK   58  A    between atoms: _132  and  _133
REMARK   59  A    between atoms: _132  and  _135
REMARK   60  A    between atoms: _135  and  _136
REMARK   61  A    between atoms: _141  and  _142
REMARK   62  A    between atoms: _144  and  _146
REMARK   63  A    between atoms: _146  and  _147
REMARK   64  A    between atoms: _146  and  _149
REMARK   65  A    between atoms: _153  and  _154
REMARK   66  A    between atoms: _159  and  _161
REMARK   67  A    between atoms: _161  and  _162
REMARK   68  A    between atoms: _161  and  _164
REMARK   69  A    between atoms: _164  and  _165
REMARK   70  A    between atoms: _170  and  _171
REMARK   71  A    between atoms: _173  and  _175
REMARK   72  A    between atoms: _175  and  _176
REMARK   73  A    between atoms: _175  and  _178
REMARK   74  A    between atoms: _178  and  _179
REMARK   75  A    between atoms: _182  and  _184
REMARK   76  A    between atoms: _184  and  _185
REMARK   77  A    between atoms: _184  and  _187
REMARK   78  A    between atoms: _187  and  _188
REMARK   79  A    between atoms: _188  and  _189
REMARK   80  A    between atoms: _194  and  _196
REMARK   81  A    between atoms: _196  and  _197
REMARK   82  A    between atoms: _199  and  _201
REMARK   83  A    between atoms: _201  and  _202
REMARK   84  A    between atoms: _201  and  _204
REMARK   85  A    between atoms: _204  and  _205
REMARK   86  A    between atoms: _205  and  _206
REMARK   87  A    between atoms: _206  and  _207
REMARK   88  A    between atoms: _207  and  _208
REMARK   89  A    between atoms: _212  and  _214
REMARK   90  A    between atoms: _214  and  _215
REMARK   91  A    between atoms: _214  and  _217
REMARK   92  A    between atoms: _217  and  _218
REMARK   93  A    between atoms: _228  and  _230
REMARK   94  A    between atoms: _230  and  _231
REMARK   95  A    between atoms: _230  and  _233
REMARK   96  A    between atoms: _233  and  _234
REMARK   97  A    between atoms: _237  and  _239
REMARK   98  A    between atoms: _239  and  _240
REMARK   99  A    between atoms: _239  and  _242
REMARK  100  A    between atoms: _242  and  _243
REMARK  101  A    between atoms: _243  and  _244
REMARK  102  A    between atoms: _244  and  _245
REMARK  103  A    between atoms: _245  and  _246
REMARK  104  A    between atoms: _250  and  _252
REMARK  105  A    between atoms: _252  and  _253
REMARK  106  A    between atoms: _252  and  _255
REMARK  107  A    between atoms: _255  and  _256
REMARK  108  A    between atoms: _262  and  _264
REMARK  109  A    between atoms: _264  and  _265
REMARK  110  A    between atoms: _264  and  _267
REMARK  111  A    between atoms: _267  and  _268
REMARK  112  A    between atoms: _274  and  _276
REMARK  113  A    between atoms: _276  and  _277
REMARK  114  A    between atoms: _276  and  _279
REMARK  115  A    between atoms: _279  and  _280
REMARK  116  A    between atoms: _283  and  _285
REMARK  117  A    between atoms: _285  and  _286
REMARK  118  A    between atoms: _285  and  _288
REMARK  119  A    between atoms: _288  and  _289
REMARK  120  A    between atoms: _291  and  _293
REMARK  121  A    between atoms: _293  and  _294
REMARK  122  A    between atoms: _293  and  _296
REMARK  123  A    between atoms: _296  and  _297
REMARK  124  A    between atoms: _307  and  _309
REMARK  125  A    between atoms: _309  and  _310
REMARK  126  A    between atoms: _312  and  _314
REMARK  127  A    between atoms: _314  and  _315
REMARK  128  A    between atoms: _314  and  _317
REMARK  129  A    between atoms: _317  and  _318
REMARK  130  A    between atoms: _321  and  _323
REMARK  131  A    between atoms: _323  and  _324
REMARK  132  A    between atoms: _323  and  _326
REMARK  133  A    between atoms: _326  and  _327
REMARK  134  A    between atoms: _330  and  _332
REMARK  135  A    between atoms: _332  and  _333
REMARK  136  A    between atoms: _332  and  _335
REMARK  137  A    between atoms: _335  and  _336
REMARK  138  A    between atoms: _339  and  _341
REMARK  139  A    between atoms: _341  and  _342
REMARK  140  A    between atoms: _345  and  _347
REMARK  141  A    between atoms: _347  and  _348
REMARK  142  A    between atoms: _347  and  _350
REMARK  143  A    between atoms: _350  and  _351
REMARK  144  A    between atoms: _356  and  _357
REMARK  145  A    between atoms: _359  and  _361
REMARK  146  A    between atoms: _361  and  _362
REMARK  147  A    between atoms: _361  and  _364
REMARK  148  A    between atoms: _364  and  _365
REMARK  149  A    between atoms: _365  and  _366
REMARK  150  A    between atoms: _369  and  _371
REMARK  151  A    between atoms: _371  and  _372
REMARK  152  A    between atoms: _371  and  _374
REMARK  153  A    between atoms: _374  and  _375
REMARK  154  A    between atoms: _378  and  _380
REMARK  155  A    between atoms: _380  and  _381
REMARK  156  A    between atoms: _384  and  _386
REMARK  157  A    between atoms: _386  and  _387
REMARK  158  A    between atoms: _386  and  _389
REMARK  159  A    between atoms: _389  and  _390
REMARK  160  A    between atoms: _390  and  _391
REMARK  161  A    between atoms: _391  and  _392
REMARK  162  A    between atoms: _401  and  _403
REMARK  163  A    between atoms: _403  and  _404
REMARK  164  A    between atoms: _403  and  _406
REMARK  165  A    between atoms: _406  and  _407
REMARK  166  A    between atoms: _410  and  _412
REMARK  167  A    between atoms: _412  and  _413
REMARK  168  A    between atoms: _412  and  _415
REMARK  169  A    between atoms: _415  and  _416
REMARK  170  A    between atoms: _426  and  _428
REMARK  171  A    between atoms: _428  and  _429
REMARK  172  A    between atoms: _428  and  _431
REMARK  173  A    between atoms: _431  and  _432
REMARK  174  A    between atoms: _437  and  _438
REMARK  175  A    between atoms: _440  and  _442
REMARK  176  A    between atoms: _442  and  _443
REMARK  177  A    between atoms: _442  and  _445
REMARK  178  A    between atoms: _445  and  _446
REMARK  179  A    between atoms: _451  and  _452
REMARK  180  A    between atoms: _454  and  _456
REMARK  181  A    between atoms: _456  and  _457
REMARK  182  A    between atoms: _456  and  _459
REMARK  183  A    between atoms: _459  and  _460
REMARK  184  A    between atoms: _460  and  _461
REMARK  185  A    between atoms: _461  and  _462
REMARK  186  A    between atoms: _462  and  _463
REMARK  187  A    between atoms: _467  and  _469
REMARK  188  A    between atoms: _469  and  _470
REMARK  189  A    between atoms: _469  and  _472
REMARK  190  A    between atoms: _472  and  _473
REMARK  191  A    between atoms: _476  and  _478
REMARK  192  A    between atoms: _478  and  _479
REMARK  193  A    between atoms: _478  and  _481
REMARK  194  A    between atoms: _484  and  _486
REMARK  195  A    between atoms: _486  and  _487
REMARK  196  A    between atoms: _486  and  _489
REMARK  197  A    between atoms: _489  and  _490
REMARK  198  A    between atoms: _493  and  _495
REMARK  199  A    between atoms: _495  and  _496
REMARK  200  A    between atoms: _495  and  _498
REMARK  201  A    between atoms: _498  and  _499
REMARK  202  A    between atoms: _501  and  _503
REMARK  203  A    between atoms: _503  and  _504
REMARK  204  A    between atoms: _506  and  _508
REMARK  205  A    between atoms: _508  and  _509
REMARK  206  A    between atoms: _508  and  _511
REMARK  207  A    between atoms: _511  and  _512
REMARK  208  A    between atoms: _515  and  _517
REMARK  209  A    between atoms: _517  and  _518
REMARK  210  A    between atoms: _517  and  _520
REMARK  211  A    between atoms: _520  and  _521
REMARK  212  A    between atoms: _524  and  _526
REMARK  213  A    between atoms: _526  and  _527
REMARK  214  A    between atoms: _526  and  _529
REMARK  215  A    between atoms: _529  and  _530
REMARK  216  A    between atoms: _535  and  _537
REMARK  217  A    between atoms: _537  and  _538
REMARK  218  A    between atoms: _537  and  _540
REMARK  219  A    between atoms: _540  and  _541
REMARK  220  A    between atoms: _544  and  _546
REMARK  221  A    between atoms: _546  and  _547
REMARK  222  A    between atoms: _546  and  _549
REMARK  223  A    between atoms: _549  and  _550
REMARK  224  A    between atoms: _550  and  _551
REMARK  225  A    between atoms: _551  and  _552
REMARK  226  A    between atoms: _561  and  _563
REMARK  227  A    between atoms: _563  and  _564
REMARK  228  A    between atoms: _563  and  _566
REMARK  229  A    between atoms: _566  and  _567
REMARK  230  A    between atoms: _570  and  _572
REMARK  231  A    between atoms: _572  and  _573
REMARK  232  A    between atoms: _572  and  _575
REMARK  233  A    between atoms: _575  and  _576
REMARK  234  A    between atoms: _579  and  _581
REMARK  235  A    between atoms: _581  and  _582
REMARK  236  A    between atoms: _584  and  _586
REMARK  237  A    between atoms: _586  and  _587
REMARK  238  A    between atoms: _586  and  _589
REMARK  239  A    between atoms: _589  and  _590
REMARK  240  A    between atoms: _590  and  _591
REMARK  241  A    between atoms: _591  and  _592
REMARK  242  A    between atoms: _601  and  _603
REMARK  243  A    between atoms: _603  and  _604
REMARK  244  A    between atoms: _603  and  _606
REMARK  245  A    between atoms: _606  and  _607
REMARK  246  A    between atoms: _613  and  _615
REMARK  247  A    between atoms: _615  and  _616
REMARK  248  A    between atoms: _619  and  _621
REMARK  249  A    between atoms: _621  and  _622
REMARK  250  A    between atoms: _621  and  _624
REMARK  251  A    between atoms: _624  and  _625
REMARK  252  A    between atoms: _628  and  _630
REMARK  253  A    between atoms: _630  and  _631
REMARK  254  A    between atoms: _630  and  _633
REMARK  255  A    between atoms: _633  and  _634
REMARK  256  A    between atoms: _636  and  _638
REMARK  257  A    between atoms: _638  and  _639
REMARK  258  A    between atoms: _638  and  _641
REMARK  259  A    between atoms: _641  and  _642
REMARK  260  A    between atoms: _642  and  _643
REMARK  261  A    between atoms: _648  and  _650
REMARK  262  A    between atoms: _650  and  _651
REMARK  263  A    between atoms: _650  and  _653
REMARK  264  A    between atoms: _653  and  _654
REMARK  265  A    between atoms: _656  and  _658
REMARK  266  A    between atoms: _658  and  _659
REMARK  267  A    between atoms: _658  and  _661
REMARK  268  A    between atoms: _661  and  _662
REMARK  269  A    between atoms: _665  and  _667
REMARK  270  A    between atoms: _667  and  _668
REMARK  271  A    between atoms: _667  and  _670
REMARK  272  A    between atoms: _670  and  _671
REMARK  273  A    between atoms: _674  and  _676
REMARK  274  A    between atoms: _676  and  _677
REMARK  275  A    between atoms: _676  and  _679
REMARK  276  A    between atoms: _682  and  _684
REMARK  277  A    between atoms: _684  and  _685
REMARK  278  A    between atoms: _684  and  _687
REMARK  279  A    between atoms: _687  and  _688
REMARK  280  A    between atoms: _688  and  _689
REMARK  281  A    between atoms: _691  and  _693
REMARK  282  A    between atoms: _693  and  _694
REMARK  283  A    between atoms: _696  and  _698
REMARK  284  A    between atoms: _698  and  _699
REMARK  285  A    between atoms: _702  and  _704
REMARK  286  A    between atoms: _704  and  _705
REMARK  287  A    between atoms: _704  and  _707
REMARK  288  A    between atoms: _710  and  _712
REMARK  289  A    between atoms: _712  and  _713
REMARK  290  A    between atoms: _712  and  _715
REMARK  291  A    between atoms: _715  and  _716
REMARK  292  A    between atoms: _716  and  _717
REMARK  293  A    between atoms: _719  and  _721
REMARK  294  A    between atoms: _721  and  _722
REMARK  295  A    between atoms: _721  and  _724
REMARK  296  A    between atoms: _724  and  _725
REMARK  297  A    between atoms: _725  and  _726
REMARK                            x       y       z     vdW  Elec       q    Type
REMARK                         _______ _______ _______ _____ _____    ______ ____
ROOT
ATOM      1  CA  THR A   5      -6.760  -2.604  26.962  0.00  0.00    +0.176 C 
ENDROOT
BRANCH   1   2
ATOM      2  C   THR A   5      -6.057  -3.624  26.064  0.00  0.00    +0.243 C 
ATOM      3  N   GLN A   6      -5.452  -4.610  26.706  0.00  0.00    -0.297 N 
ATOM      4  H   GLN A   6      -5.525  -4.650  27.743  0.00  0.00    +0.150 HD
ATOM      5  O   THR A   5      -6.077  -3.535  24.840  0.00  0.00    -0.273 OA
BRANCH   3   6
ATOM      6  CA  GLN A   6      -4.693  -5.634  26.022  0.00  0.00    +0.149 C 
BRANCH   6   7
ATOM      7  C   GLN A   6      -5.006  -6.991  26.644  0.00  0.00    +0.241 C 
ATOM      8  O   GLN A   6      -4.413  -7.364  27.648  0.00  0.00    -0.273 OA
ATOM      9  N   GLY A   7      -5.945  -7.724  26.068  0.00  0.00    -0.295 N 
ATOM     10  H   GLY A   7      -6.453  -7.365  25.235  0.00  0.00    +0.150 HD
BRANCH   9  11
ATOM     11  CA  GLY A   7      -6.259  -9.031  26.608  0.00  0.00    +0.176 C 
BRANCH  11  12
ATOM     12  C   GLY A   7      -7.612  -9.111  27.274  0.00  0.00    +0.243 C 
ATOM     13  O   GLY A   7      -8.198  -8.094  27.663  0.00  0.00    -0.273 OA
ATOM     14  N   LYS A   8      -8.104 -10.338  27.417  0.00  0.00    -0.297 N 
ATOM     15  H   LYS A   8      -7.546 -11.150  27.085  0.00  0.00    +0.150 HD
BRANCH  14  16
ATOM     16  CA  LYS A   8      -9.407 -10.572  28.028  0.00  0.00    +0.149 C 
BRANCH  16  17
ATOM     17  C   LYS A   8      -9.576 -12.017  28.438  0.00  0.00    +0.241 C 
ATOM     18  N   TRP A   9     -10.571 -12.260  29.285  0.00  0.00    -0.298 N 
ATOM     19  H   TRP A   9     -11.144 -11.468  29.640  0.00  0.00    +0.150 HD
ATOM     20  O   LYS A   8      -8.818 -12.887  28.013  0.00  0.00    -0.273 OA
BRANCH  18  21
ATOM     21  CA  TRP A   9     -10.873 -13.606  29.723  0.00  0.00    +0.141 C 
BRANCH  21  22
ATOM     22  C   TRP A   9     -12.335 -13.754  30.096  0.00  0.00    +0.227 C 
ATOM     23  O   TRP A   9     -13.031 -12.777  30.367  0.00  0.00    -0.286 OA
ENDBRANCH  21  22
BRANCH  21  24
ATOM     24  CB  TRP A   9      -9.998 -14.026  30.912  0.00  0.00    +0.056 C 
BRANCH  24  25
ATOM     25  CG  TRP A   9      -9.995 -13.068  32.076  0.00  0.00    -0.002 A 
ATOM     26  CD2 TRP A   9     -11.012 -12.916  33.080  0.00  0.00    +0.013 A 
ATOM     27  CE2 TRP A   9     -10.564 -11.916  33.980  0.00  0.00    +0.056 A 
ATOM     28  CZ2 TRP A   9     -11.319 -11.508  35.093  0.00  0.00    +0.017 A 
ATOM     29  CH2 TRP A   9     -12.532 -12.116  35.291  0.00  0.00    +0.001 A 
ATOM     30  CZ3 TRP A   9     -13.005 -13.116  34.413  0.00  0.00    +0.000 A 
ATOM     31  NE1 TRP A   9      -9.339 -11.489  33.541  0.00  0.00    -0.352 N 
ATOM     32  HE1 TRP A   9      -8.756 -10.759  33.998  0.00  0.00    +0.166 HD
ATOM     33  CE3 TRP A   9     -12.253 -13.523  33.309  0.00  0.00    +0.001 A 
ATOM     34  CD1 TRP A   9      -9.002 -12.179  32.401  0.00  0.00    +0.068 A 
ENDBRANCH  24  25
ENDBRANCH  21  24
ENDBRANCH  18  21
ENDBRANCH  16  17
BRANCH  16  35
ATOM     35  CB  LYS A   8     -10.523 -10.196  27.049  0.00  0.00    +0.029 C 
BRANCH  35  36
ATOM     36  CG  LYS A   8     -10.476 -10.941  25.719  0.00  0.00    +0.000 C 
BRANCH  36  37
ATOM     37  CD  LYS A   8     -11.269 -10.185  24.667  0.00  0.00    -0.024 C 
BRANCH  37  38
ATOM     38  CE  LYS A   8     -10.995 -10.686  23.245  0.00  0.00    -0.086 C 
BRANCH  38  39
ATOM     39  NZ  LYS A   8     -11.643 -12.002  22.961  0.00  0.00    +0.380 N 
ATOM     40  HZ1 LYS A   8     -11.281 -12.716  23.626  0.00  0.00    -0.089 HD
ATOM     41  HZ2 LYS A   8     -12.673 -11.912  23.074  0.00  0.00    -0.089 HD
ATOM     42  HZ3 LYS A   8     -11.424 -12.292  21.986  0.00  0.00    -0.089 HD
ENDBRANCH  38  39
ENDBRANCH  37  38
ENDBRANCH  36  37
ENDBRANCH  35  36
ENDBRANCH  16  35
ENDBRANCH  14  16
ENDBRANCH  11  12
ENDBRANCH   9  11
ENDBRANCH   6   7
BRANCH   6  43
ATOM     43  CB  GLN A   6      -3.214  -5.295  26.199  0.00  0.00    +0.039 C 
BRANCH  43  44
ATOM     44  CG  GLN A   6      -2.211  -6.029  25.351  0.00  0.00    +0.087 C 
BRANCH  44  45
ATOM     45  CD  GLN A   6      -0.782  -5.591  25.692  0.00  0.00    +0.219 C 
ATOM     46  OE1 GLN A   6      -0.162  -6.110  26.634  0.00  0.00    -0.275 OA
ATOM     47  NE2 GLN A   6      -0.266  -4.613  24.946  0.00  0.00    -0.329 N 
ATOM     48 HE21 GLN A   6       0.691  -4.257  25.145  0.00  0.00    +0.145 HD
ATOM     49 HE22 GLN A   6      -0.821  -4.206  24.166  0.00  0.00    +0.145 HD
ENDBRANCH  44  45
ENDBRANCH  43  44
ENDBRANCH   6  43
ENDBRANCH   3   6
ENDBRANCH   1   2
BRANCH   1  51
ATOM     50  C   TYR A   4      -8.074  -4.414  27.957  0.00  0.00    +0.241 C 
ATOM     51  N   THR A   5      -7.383  -3.290  28.097  0.00  0.00    -0.295 N 
ATOM     52  H   THR A   5      -7.280  -2.881  29.047  0.00  0.00    +0.150 HD
ATOM     53  O   TYR A   4      -8.255  -4.953  26.870  0.00  0.00    -0.273 OA
BRANCH  50  54
ATOM     54  CA  TYR A   4      -8.640  -5.027  29.229  0.00  0.00    +0.153 C 
BRANCH  54  57
ATOM     55  C   PRO A   3     -10.954  -5.858  29.177  0.00  0.00    +0.241 C 
ATOM     56  O   PRO A   3     -11.374  -4.914  29.846  0.00  0.00    -0.273 OA
ATOM     57  N   TYR A   4      -9.670  -5.998  28.846  0.00  0.00    -0.297 N 
ATOM     58  H   TYR A   4      -9.387  -6.832  28.292  0.00  0.00    +0.150 HD
BRANCH  55  65
ATOM     59  C   VAL A   2     -12.565  -8.645  30.370  0.00  0.00    +0.244 C 
ATOM     60  O   VAL A   2     -11.636  -9.409  30.090  0.00  0.00    -0.273 OA
ATOM     61  N   PRO A   3     -12.761  -7.480  29.733  0.00  0.00    -0.272 N 
ATOM     62  CD  PRO A   3     -14.086  -6.826  29.708  0.00  0.00    +0.094 C 
ATOM     63  CG  PRO A   3     -13.920  -5.742  28.643  0.00  0.00    +0.024 C 
ATOM     64  CB  PRO A   3     -12.949  -6.368  27.701  0.00  0.00    +0.031 C 
ATOM     65  CA  PRO A   3     -11.919  -6.941  28.667  0.00  0.00    +0.152 C 
BRANCH  59  66
ATOM     66  CA  VAL A   2     -13.570  -8.989  31.452  0.00  0.00    +0.149 C 
BRANCH  66  69
ATOM     67  C   TYR A   1     -15.650 -10.199  31.331  0.00  0.00    +0.239 C 
ATOM     68  O   TYR A   1     -16.272  -9.200  31.690  0.00  0.00    -0.274 OA
ATOM     69  N   VAL A   2     -14.326 -10.209  31.197  0.00  0.00    -0.297 N 
ATOM     70  H   VAL A   2     -13.835 -11.080  30.913  0.00  0.00    +0.150 HD
BRANCH  67  71
ATOM     71  CA  TYR A   1     -16.394 -11.485  31.033  0.00  0.00    +0.149 C 
BRANCH  71  72
ATOM     72  N   TYR A   1     -17.256 -11.790  32.156  0.00  0.00    -0.238 NA
ATOM     73  H   TYR A   1     -17.883 -11.050  32.532  0.00  0.00    +0.142 HD
ENDBRANCH  71  72
BRANCH  71  74
ATOM     74  CB  TYR A   1     -17.225 -11.297  29.771  0.00  0.00    +0.053 C 
BRANCH  74  75
ATOM     75  CG  TYR A   1     -16.441 -10.707  28.634  0.00  0.00    -0.020 A 
ATOM     76  CD2 TYR A   1     -16.743  -9.452  28.139  0.00  0.00    -0.001 A 
ATOM     77  CE2 TYR A   1     -16.004  -8.891  27.103  0.00  0.00    +0.036 A 
ATOM     78  CZ  TYR A   1     -14.939  -9.596  26.552  0.00  0.00    +0.134 A 
ATOM     79  CE1 TYR A   1     -14.616 -10.854  27.030  0.00  0.00    +0.036 A 
ATOM     80  CD1 TYR A   1     -15.372 -11.401  28.067  0.00  0.00    -0.001 A 
BRANCH  78  81
ATOM     81  OH  TYR A   1     -14.199  -9.042  25.528  0.00  0.00    -0.506 OA
ATOM     82  HH  TYR A   1     -14.791  -8.860  24.755  0.00  0.00    +0.292 HD
ENDBRANCH  78  81
ENDBRANCH  74  75
ENDBRANCH  71  74
ENDBRANCH  67  71
ENDBRANCH  66  69
BRANCH  66  83
ATOM     83  CB  VAL A   2     -12.825  -9.015  32.821  0.00  0.00    +0.027 C 
ATOM     84  CG2 VAL A   2     -13.831  -9.132  33.969  0.00  0.00    +0.002 C 
ATOM     85  CG1 VAL A   2     -12.005  -7.720  32.994  0.00  0.00    +0.002 C 
ENDBRANCH  66  83
ENDBRANCH  59  66
ENDBRANCH  55  65
ENDBRANCH  54  57
BRANCH  54  86
ATOM     86  CB  TYR A   4      -7.491  -5.705  29.970  0.00  0.00    +0.055 C 
BRANCH  86  87
ATOM     87  CG  TYR A   4      -7.908  -6.524  31.165  0.00  0.00    -0.020 A 
ATOM     88  CD2 TYR A   4      -7.895  -5.985  32.457  0.00  0.00    -0.001 A 
ATOM     89  CE2 TYR A   4      -8.242  -6.760  33.567  0.00  0.00    +0.036 A 
ATOM     90  CZ  TYR A   4      -8.609  -8.073  33.381  0.00  0.00    +0.134 A 
ATOM     91  CE1 TYR A   4      -8.638  -8.622  32.116  0.00  0.00    +0.036 A 
ATOM     92  CD1 TYR A   4      -8.287  -7.853  31.016  0.00  0.00    -0.001 A 
BRANCH  90  93
ATOM     93  OH  TYR A   4      -8.930  -8.857  34.450  0.00  0.00    -0.506 OA
ATOM     94  HH  TYR A   4      -8.863  -8.323  35.281  0.00  0.00    +0.292 HD
ENDBRANCH  90  93
ENDBRANCH  86  87
ENDBRANCH  54  86
ENDBRANCH  50  54
ENDBRANCH   1  51
BRANCH   1  95
ATOM     95  CB  THR A   5      -5.682  -1.610  27.463  0.00  0.00    +0.137 C 
ATOM     96  CG2 THR A   5      -5.229  -0.675  26.339  0.00  0.00    +0.034 C 
BRANCH  95  97
ATOM     97  OG1 THR A   5      -6.215  -0.851  28.560  0.00  0.00    -0.382 OA
ATOM     98  HG1 THR A   5      -6.468  -1.466  29.293  0.00  0.00    +0.210 HD
ENDBRANCH  95  97
ENDBRANCH   1  95
TORSDOF 36
REMARK  Name = ../refined-set-2016/2p4j/2p4j_pocket.pdb
REMARK  297 active torsions:
REMARK  status: ('A' for Active; 'I' for Inactive)
REMARK    1  A    between atoms: _1  and  _3
REMARK    2  A    between atoms: _3  and  _4
REMARK    3  A    between atoms: _6  and  _8
REMARK    4  A    between atoms: _8  and  _9
REMARK    5  A    between atoms: _8  and  _11
REMARK    6  A    between atoms: _11  and  _12
REMARK    7  A    between atoms: _12  and  _13
REMARK    8  A    between atoms: _13  and  _14
REMARK    9  A    between atoms: _14  and  _15
REMARK   10  A    between atoms: _19  and  _21
REMARK   11  A    between atoms: _21  and  _22
REMARK   12  A    between atoms: _21  and  _24
REMARK   13  A    between atoms: _24  and  _25
REMARK   14  A    between atoms: _27  and  _29
REMARK   15  A    between atoms: _29  and  _30
REMARK   16  A    between atoms: _32  and  _34
REMARK   17  A    between atoms: _34  and  _35
REMARK   18  A    between atoms: _34  and  _37
REMARK   19  A    between atoms: _37  and  _38
REMARK   20  A    between atoms: _38  and  _39
REMARK   21  A    between atoms: _44  and  _46
REMARK   22  A    between atoms: _46  and  _47
REMARK   23  A    between atoms: _49  and  _51
REMARK   24  A    between atoms: _51  and  _52
REMARK   25  A    between atoms: _51  and  _54
REMARK   26  A    between atoms: _54  and  _55
REMARK   27  A    between atoms: _60  and  _61
REMARK   28  A    between atoms: _63  and  _65
REMARK   29  A    between atoms: _65  and  _66
REMARK   30  A    between atoms: _65  and  _68
REMARK   31  A    between atoms: _68  and  _69
REMARK   32  A    between atoms: _72  and  _74
REMARK   33  A    between atoms: _74  and  _75
REMARK   34  A    between atoms: _74  and  _77
REMARK   35  A    between atoms: _80  and  _82
REMARK   36  A    between atoms: _82  and  _83
REMARK   37  A    between atoms: _82  and  _85
REMARK   38  A    between atoms: _85  and  _86
REMARK   39  A    between atoms: _89  and  _91
REMARK   40  A    between atoms: _91  and  _92
REMARK   41  A    between atoms: _91  and  _94
REMARK   42  A    between atoms: _94  and  _95
REMARK   43  A    between atoms: _98  and  _100
REMARK   44  A    between atoms: _100  and  _101
REMARK   45  A    between atoms: _103  and  _105
REMARK   46  A    between atoms: _105  and  _106
REMARK   47  A    between atoms: _105  and  _108
REMARK   48  A    between atoms: _108  and  _109
REMARK   49  A    between atoms: _111  and  _113
REMARK   50  A    between atoms: _113  and  _114
REMARK   51  A    between atoms: _113  and  _116
REMARK   52  A    between atoms: _116  and  _117
REMARK   53  A    between atoms: _119  and  _121
REMARK   54  A    between atoms: _121  and  _122
REMARK   55  A    between atoms: _121  and  _124
REMARK   56  A    between atoms: _124  and  _125
REMARK   57  A    between atoms: _130  and  _132
REMARK   58  A    between atoms: _132  and  _133
REMARK   59  A    between atoms: _132  and  _135
REMARK   60  A    between atoms: _135  and  _136
REMARK   61  A    between atoms: _141  and  _142
REMARK   62  A    between atoms: _144  and  _146
REMARK   63  A    between atoms: _146  and  _147
REMARK   64  A    between atoms: _146  and  _149
REMARK   65  A    between atoms: _153  and  _154
REMARK   66  A    between atoms: _159  and  _161
REMARK   67  A    between atoms: _161  and  _162
REMARK   68  A    between atoms: _161  and  _164
REMARK   69  A    between atoms: _164  and  _165
REMARK   70  A    between atoms: _170  and  _171
REMARK   71  A    between atoms: _173  and  _175
REMARK   72  A    between atoms: _175  and  _176
REMARK   73  A    between atoms: _175  and  _178
REMARK   74  A    between atoms: _178  and  _179
REMARK   75  A    between atoms: _182  and  _184
REMARK   76  A    between atoms: _184  and  _185
REMARK   77  A    between atoms: _184  and  _187
REMARK   78  A    between atoms: _187  and  _188
REMARK   79  A    between atoms: _188  and  _189
REMARK   80  A    between atoms: _194  and  _196
REMARK   81  A    between atoms: _196  and  _197
REMARK   82  A    between atoms: _199  and  _201
REMARK   83  A    between atoms: _201  and  _202
REMARK   84  A    between atoms: _201  and  _204
REMARK   85  A    between atoms: _204  and  _205
REMARK   86  A    between atoms: _205  and  _206
REMARK   87  A    between atoms: _206  and  _207
REMARK   88  A    between atoms: _207  and  _208
REMARK   89  A    between atoms: _212  and  _214
REMARK   90  A    between atoms: _214  and  _215
REMARK   91  A    between atoms: _214  and  _217
REMARK   92  A    between atoms: _217  and  _218
REMARK   93  A    between atoms: _228  and  _230
REMARK   94  A    between atoms: _230  and  _231
REMARK   95  A    between atoms: _230  and  _233
REMARK   96  A    between atoms: _233  and  _234
REMARK   97  A    between atoms: _237  and  _239
REMARK   98  A    between atoms: _239  and  _240
REMARK   99  A    between atoms: _239  and  _242
REMARK  100  A    between atoms: _242  and  _243
REMARK  101  A    between atoms: _243  and  _244
REMARK  102  A    between atoms: _244  and  _245
REMARK  103  A    between atoms: _245  and  _246
REMARK  104  A    between atoms: _250  and  _252
REMARK  105  A    between atoms: _252  and  _253
REMARK  106  A    between atoms: _252  and  _255
REMARK  107  A    between atoms: _255  and  _256
REMARK  108  A    between atoms: _262  and  _264
REMARK  109  A    between atoms: _264  and  _265
REMARK  110  A    between atoms: _264  and  _267
REMARK  111  A    between atoms: _267  and  _268
REMARK  112  A    between atoms: _274  and  _276
REMARK  113  A    between atoms: _276  and  _277
REMARK  114  A    between atoms: _276  and  _279
REMARK  115  A    between atoms: _279  and  _280
REMARK  116  A    between atoms: _283  and  _285
REMARK  117  A    between atoms: _285  and  _286
REMARK  118  A    between atoms: _285  and  _288
REMARK  119  A    between atoms: _288  and  _289
REMARK  120  A    between atoms: _291  and  _293
REMARK  121  A    between atoms: _293  and  _294
REMARK  122  A    between atoms: _293  and  _296
REMARK  123  A    between atoms: _296  and  _297
REMARK  124  A    between atoms: _307  and  _309
REMARK  125  A    between atoms: _309  and  _310
REMARK  126  A    between atoms: _312  and  _314
REMARK  127  A    between atoms: _314  and  _315
REMARK  128  A    between atoms: _314  and  _317
REMARK  129  A    between atoms: _317  and  _318
REMARK  130  A    between atoms: _321  and  _323
REMARK  131  A    between atoms: _323  and  _324
REMARK  132  A    between atoms: _323  and  _326
REMARK  133  A    between atoms: _326  and  _327
REMARK  134  A    between atoms: _330  and  _332
REMARK  135  A    between atoms: _332  and  _333
REMARK  136  A    between atoms: _332  and  _335
REMARK  137  A    between atoms: _335  and  _336
REMARK  138  A    between atoms: _339  and  _341
REMARK  139  A    between atoms: _341  and  _342
REMARK  140  A    between atoms: _345  and  _347
REMARK  141  A    between atoms: _347  and  _348
REMARK  142  A    between atoms: _347  and  _350
REMARK  143  A    between atoms: _350  and  _351
REMARK  144  A    between atoms: _356  and  _357
REMARK  145  A    between atoms: _359  and  _361
REMARK  146  A    between atoms: _361  and  _362
REMARK  147  A    between atoms: _361  and  _364
REMARK  148  A    between atoms: _364  and  _365
REMARK  149  A    between atoms: _365  and  _366
REMARK  150  A    between atoms: _369  and  _371
REMARK  151  A    between atoms: _371  and  _372
REMARK  152  A    between atoms: _371  and  _374
REMARK  153  A    between atoms: _374  and  _375
REMARK  154  A    between atoms: _378  and  _380
REMARK  155  A    between atoms: _380  and  _381
REMARK  156  A    between atoms: _384  and  _386
REMARK  157  A    between atoms: _386  and  _387
REMARK  158  A    between atoms: _386  and  _389
REMARK  159  A    between atoms: _389  and  _390
REMARK  160  A    between atoms: _390  and  _391
REMARK  161  A    between atoms: _391  and  _392
REMARK  162  A    between atoms: _401  and  _403
REMARK  163  A    between atoms: _403  and  _404
REMARK  164  A    between atoms: _403  and  _406
REMARK  165  A    between atoms: _406  and  _407
REMARK  166  A    between atoms: _410  and  _412
REMARK  167  A    between atoms: _412  and  _413
REMARK  168  A    between atoms: _412  and  _415
REMARK  169  A    between atoms: _415  and  _416
REMARK  170  A    between atoms: _426  and  _428
REMARK  171  A    between atoms: _428  and  _429
REMARK  172  A    between atoms: _428  and  _431
REMARK  173  A    between atoms: _431  and  _432
REMARK  174  A    between atoms: _437  and  _438
REMARK  175  A    between atoms: _440  and  _442
REMARK  176  A    between atoms: _442  and  _443
REMARK  177  A    between atoms: _442  and  _445
REMARK  178  A    between atoms: _445  and  _446
REMARK  179  A    between atoms: _451  and  _452
REMARK  180  A    between atoms: _454  and  _456
REMARK  181  A    between atoms: _456  and  _457
REMARK  182  A    between atoms: _456  and  _459
REMARK  183  A    between atoms: _459  and  _460
REMARK  184  A    between atoms: _460  and  _461
REMARK  185  A    between atoms: _461  and  _462
REMARK  186  A    between atoms: _462  and  _463
REMARK  187  A    between atoms: _467  and  _469
REMARK  188  A    between atoms: _469  and  _470
REMARK  189  A    between atoms: _469  and  _472
REMARK  190  A    between atoms: _472  and  _473
REMARK  191  A    between atoms: _476  and  _478
REMARK  192  A    between atoms: _478  and  _479
REMARK  193  A    between atoms: _478  and  _481
REMARK  194  A    between atoms: _484  and  _486
REMARK  195  A    between atoms: _486  and  _487
REMARK  196  A    between atoms: _486  and  _489
REMARK  197  A    between atoms: _489  and  _490
REMARK  198  A    between atoms: _493  and  _495
REMARK  199  A    between atoms: _495  and  _496
REMARK  200  A    between atoms: _495  and  _498
REMARK  201  A    between atoms: _498  and  _499
REMARK  202  A    between atoms: _501  and  _503
REMARK  203  A    between atoms: _503  and  _504
REMARK  204  A    between atoms: _506  and  _508
REMARK  205  A    between atoms: _508  and  _509
REMARK  206  A    between atoms: _508  and  _511
REMARK  207  A    between atoms: _511  and  _512
REMARK  208  A    between atoms: _515  and  _517
REMARK  209  A    between atoms: _517  and  _518
REMARK  210  A    between atoms: _517  and  _520
REMARK  211  A    between atoms: _520  and  _521
REMARK  212  A    between atoms: _524  and  _526
REMARK  213  A    between atoms: _526  and  _527
REMARK  214  A    between atoms: _526  and  _529
REMARK  215  A    between atoms: _529  and  _530
REMARK  216  A    between atoms: _535  and  _537
REMARK  217  A    between atoms: _537  and  _538
REMARK  218  A    between atoms: _537  and  _540
REMARK  219  A    between atoms: _540  and  _541
REMARK  220  A    between atoms: _544  and  _546
REMARK  221  A    between atoms: _546  and  _547
REMARK  222  A    between atoms: _546  and  _549
REMARK  223  A    between atoms: _549  and  _550
REMARK  224  A    between atoms: _550  and  _551
REMARK  225  A    between atoms: _551  and  _552
REMARK  226  A    between atoms: _561  and  _563
REMARK  227  A    between atoms: _563  and  _564
REMARK  228  A    between atoms: _563  and  _566
REMARK  229  A    between atoms: _566  and  _567
REMARK  230  A    between atoms: _570  and  _572
REMARK  231  A    between atoms: _572  and  _573
REMARK  232  A    between atoms: _572  and  _575
REMARK  233  A    between atoms: _575  and  _576
REMARK  234  A    between atoms: _579  and  _581
REMARK  235  A    between atoms: _581  and  _582
REMARK  236  A    between atoms: _584  and  _586
REMARK  237  A    between atoms: _586  and  _587
REMARK  238  A    between atoms: _586  and  _589
REMARK  239  A    between atoms: _589  and  _590
REMARK  240  A    between atoms: _590  and  _591
REMARK  241  A    between atoms: _591  and  _592
REMARK  242  A    between atoms: _601  and  _603
REMARK  243  A    between atoms: _603  and  _604
REMARK  244  A    between atoms: _603  and  _606
REMARK  245  A    between atoms: _606  and  _607
REMARK  246  A    between atoms: _613  and  _615
REMARK  247  A    between atoms: _615  and  _616
REMARK  248  A    between atoms: _619  and  _621
REMARK  249  A    between atoms: _621  and  _622
REMARK  250  A    between atoms: _621  and  _624
REMARK  251  A    between atoms: _624  and  _625
REMARK  252  A    between atoms: _628  and  _630
REMARK  253  A    between atoms: _630  and  _631
REMARK  254  A    between atoms: _630  and  _633
REMARK  255  A    between atoms: _633  and  _634
REMARK  256  A    between atoms: _636  and  _638
REMARK  257  A    between atoms: _638  and  _639
REMARK  258  A    between atoms: _638  and  _641
REMARK  259  A    between atoms: _641  and  _642
REMARK  260  A    between atoms: _642  and  _643
REMARK  261  A    between atoms: _648  and  _650
REMARK  262  A    between atoms: _650  and  _651
REMARK  263  A    between atoms: _650  and  _653
REMARK  264  A    between atoms: _653  and  _654
REMARK  265  A    between atoms: _656  and  _658
REMARK  266  A    between atoms: _658  and  _659
REMARK  267  A    between atoms: _658  and  _661
REMARK  268  A    between atoms: _661  and  _662
REMARK  269  A    between atoms: _665  and  _667
REMARK  270  A    between atoms: _667  and  _668
REMARK  271  A    between atoms: _667  and  _670
REMARK  272  A    between atoms: _670  and  _671
REMARK  273  A    between atoms: _674  and  _676
REMARK  274  A    between atoms: _676  and  _677
REMARK  275  A    between atoms: _676  and  _679
REMARK  276  A    between atoms: _682  and  _684
REMARK  277  A    between atoms: _684  and  _685
REMARK  278  A    between atoms: _684  and  _687
REMARK  279  A    between atoms: _687  and  _688
REMARK  280  A    between atoms: _688  and  _689
REMARK  281  A    between atoms: _691  and  _693
REMARK  282  A    between atoms: _693  and  _694
REMARK  283  A    between atoms: _696  and  _698
REMARK  284  A    between atoms: _698  and  _699
REMARK  285  A    between atoms: _702  and  _704
REMARK  286  A    between atoms: _704  and  _705
REMARK  287  A    between atoms: _704  and  _707
REMARK  288  A    between atoms: _710  and  _712
REMARK  289  A    between atoms: _712  and  _713
REMARK  290  A    between atoms: _712  and  _715
REMARK  291  A    between atoms: _715  and  _716
REMARK  292  A    between atoms: _716  and  _717
REMARK  293  A    between atoms: _719  and  _721
REMARK  294  A    between atoms: _721  and  _722
REMARK  295  A    between atoms: _721  and  _724
REMARK  296  A    between atoms: _724  and  _725
REMARK  297  A    between atoms: _725  and  _726
REMARK                            x       y       z     vdW  Elec       q    Type
REMARK                         _______ _______ _______ _____ _____    ______ ____
ROOT
ATOM      1  CA  PHE A   3      -3.992 -12.270  28.935  0.00  0.00    +0.153 C 
ENDROOT
BRANCH   1   3
ATOM      2  C   LYS A   2      -3.681 -11.889  26.545  0.00  0.00    +0.241 C 
ATOM      3  N   PHE A   3      -3.976 -12.706  27.545  0.00  0.00    -0.297 N 
ATOM      4  H   PHE A   3      -4.205 -13.697  27.329  0.00  0.00    +0.150 HD
ATOM      5  O   LYS A   2      -3.372 -10.705  26.711  0.00  0.00    -0.273 OA
BRANCH   2   6
ATOM      6  CA  LYS A   2      -3.729 -12.511  25.153  0.00  0.00    +0.149 C 
BRANCH   6   9
ATOM      7  C   ASP A   1      -6.109 -13.163  25.280  0.00  0.00    +0.239 C 
ATOM      8  O   ASP A   1      -6.478 -12.066  25.711  0.00  0.00    -0.274 OA
ATOM      9  N   LYS A   2      -4.838 -13.459  24.996  0.00  0.00    -0.297 N 
ATOM     10  H   LYS A   2      -4.622 -14.414  24.644  0.00  0.00    +0.150 HD
BRANCH   7  11
ATOM     11  CA  ASP A   1      -7.121 -14.281  25.042  0.00  0.00    +0.156 C 
BRANCH  11  12
ATOM     12  N   ASP A   1      -7.746 -14.710  26.286  0.00  0.00    -0.238 NA
ATOM     13  H   ASP A   1      -7.980 -14.000  27.009  0.00  0.00    +0.142 HD
ENDBRANCH  11  12
BRANCH  11  14
ATOM     14  CB  ASP A   1      -8.200 -13.809  24.059  0.00  0.00    +0.140 C 
BRANCH  14  15
ATOM     15  CG  ASP A   1      -7.647 -13.519  22.673  0.00  0.00    +0.367 C 
ATOM     16  OD2 ASP A   1      -7.862 -12.392  22.165  0.00  0.00    -0.246 OA
ATOM     17  OD1 ASP A   1      -7.004 -14.420  22.090  0.00  0.00    -0.246 OA
ENDBRANCH  14  15
ENDBRANCH  11  14
ENDBRANCH   7  11
ENDBRANCH   6   9
BRANCH   6  18
ATOM     18  CB  LYS A   2      -3.820 -11.410  24.094  0.00  0.00    +0.029 C 
BRANCH  18  19
ATOM     19  CG  LYS A   2      -3.803 -11.927  22.670  0.00  0.00    +0.000 C 
BRANCH  19  20
ATOM     20  CD  LYS A   2      -4.119 -10.815  21.660  0.00  0.00    -0.024 C 
BRANCH  20  21
ATOM     21  CE  LYS A   2      -4.566 -11.398  20.307  0.00  0.00    -0.086 C 
BRANCH  21  22
ATOM     22  NZ  LYS A   2      -5.008 -10.358  19.317  0.00  0.00    +0.380 N 
ATOM     23  HZ1 LYS A   2      -5.814  -9.829  19.708  0.00  0.00    -0.089 HD
ATOM     24  HZ2 LYS A   2      -4.221  -9.704  19.128  0.00  0.00    -0.089 HD
ATOM     25  HZ3 LYS A   2      -5.294 -10.823  18.432  0.00  0.00    -0.089 HD
ENDBRANCH  21  22
ENDBRANCH  20  21
ENDBRANCH  19  20
ENDBRANCH  18  19
ENDBRANCH   6  18
ENDBRANCH   2   6
ENDBRANCH   1   3
BRANCH   1  26
ATOM     26  C   PHE A   3      -2.764 -12.813  29.652  0.00  0.00    +0.241 C 
ATOM     27  O   PHE A   3      -1.933 -12.056  30.142  0.00  0.00    -0.273 OA
ATOM     28  N   PHE A   4      -2.659 -14.133  29.711  0.00  0.00    -0.297 N 
ATOM     29  H   PHE A   4      -3.391 -14.726  29.271  0.00  0.00    +0.150 HD
BRANCH  28  30
ATOM     30  CA  PHE A   4      -1.538 -14.761  30.380  0.00  0.00    +0.153 C 
BRANCH  30  31
ATOM     31  C   PHE A   4      -0.252 -14.547  29.599  0.00  0.00    +0.241 C 
ATOM     32  N   ILE A   5       0.734 -13.952  30.255  0.00  0.00    -0.298 N 
ATOM     33  H   ILE A   5       0.597 -13.663  31.245  0.00  0.00    +0.150 HD
ATOM     34  O   PHE A   4      -0.151 -14.904  28.427  0.00  0.00    -0.273 OA
BRANCH  32  35
ATOM     35  CA  ILE A   5       1.997 -13.703  29.601  0.00  0.00    +0.137 C 
BRANCH  35  36
ATOM     36  CB  ILE A   5       2.620 -12.369  30.072  0.00  0.00    +0.026 C 
ATOM     37  CG2 ILE A   5       3.850 -12.071  29.243  0.00  0.00    +0.002 C 
BRANCH  36  38
ATOM     38  CG1 ILE A   5       1.601 -11.227  29.919  0.00  0.00    +0.002 C 
ATOM     39  CD1 ILE A   5       2.082  -9.864  30.409  0.00  0.00    +0.000 C 
ENDBRANCH  36  38
ENDBRANCH  35  36
BRANCH  35  40
ATOM     40  C   ILE A   5       2.956 -14.856  29.876  0.00  0.00    +0.227 C 
ATOM     41  O   ILE A   5       3.297 -15.142  31.021  0.00  0.00    -0.286 OA
ENDBRANCH  35  40
ENDBRANCH  32  35
ENDBRANCH  30  31
BRANCH  30  42
ATOM     42  CB  PHE A   4      -1.802 -16.255  30.567  0.00  0.00    +0.055 C 
BRANCH  42  43
ATOM     43  CG  PHE A   4      -2.878 -16.558  31.567  0.00  0.00    -0.020 A 
ATOM     44  CD2 PHE A   4      -2.776 -16.100  32.871  0.00  0.00    -0.004 A 
ATOM     45  CE2 PHE A   4      -3.765 -16.372  33.800  0.00  0.00    -0.000 A 
ATOM     46  CZ  PHE A   4      -4.872 -17.107  33.438  0.00  0.00    -0.000 A 
ATOM     47  CE1 PHE A   4      -4.991 -17.574  32.137  0.00  0.00    -0.000 A 
ATOM     48  CD1 PHE A   4      -3.993 -17.299  31.205  0.00  0.00    -0.004 A 
ENDBRANCH  42  43
ENDBRANCH  30  42
ENDBRANCH  28  30
ENDBRANCH   1  26
BRANCH   1  49
ATOM     49  CB  PHE A   3      -5.266 -12.786  29.616  0.00  0.00    +0.055 C 
BRANCH  49  50
ATOM     50  CG  PHE A   3      -5.373 -12.440  31.071  0.00  0.00    -0.020 A 
ATOM     51  CD2 PHE A   3      -5.318 -13.441  32.040  0.00  0.00    -0.004 A 
ATOM     52  CE2 PHE A   3      -5.452 -13.138  33.398  0.00  0.00    -0.000 A 
ATOM     53  CZ  PHE A   3      -5.642 -11.825  33.797  0.00  0.00    -0.000 A 
ATOM     54  CE1 PHE A   3      -5.697 -10.809  32.838  0.00  0.00    -0.000 A 
ATOM     55  CD1 PHE A   3      -5.559 -11.123  31.478  0.00  0.00    -0.004 A 
ENDBRANCH  49  50
ENDBRANCH   1  49
TORSDOF 23
REMARK  Name = ../refined-set-2016/2p4j/2p4j_pocket.pdb
REMARK  297 active torsions:
REMARK  status: ('A' for Active; 'I' for Inactive)
REMARK    1  A    between atoms: _1  and  _3
REMARK    2  A    between atoms: _3  and  _4
REMARK    3  A    between atoms: _6  and  _8
REMARK    4  A    between atoms: _8  and  _9
REMARK    5  A    between atoms: _8  and  _11
REMARK    6  A    between atoms: _11  and  _12
REMARK    7  A    between atoms: _12  and  _13
REMARK    8  A    between atoms: _13  and  _14
REMARK    9  A    between atoms: _14  and  _15
REMARK   10  A    between atoms: _19  and  _21
REMARK   11  A    between atoms: _21  and  _22
REMARK   12  A    between atoms: _21  and  _24
REMARK   13  A    between atoms: _24  and  _25
REMARK   14  A    between atoms: _27  and  _29
REMARK   15  A    between atoms: _29  and  _30
REMARK   16  A    between atoms: _32  and  _34
REMARK   17  A    between atoms: _34  and  _35
REMARK   18  A    between atoms: _34  and  _37
REMARK   19  A    between atoms: _37  and  _38
REMARK   20  A    between atoms: _38  and  _39
REMARK   21  A    between atoms: _44  and  _46
REMARK   22  A    between atoms: _46  and  _47
REMARK   23  A    between atoms: _49  and  _51
REMARK   24  A    between atoms: _51  and  _52
REMARK   25  A    between atoms: _51  and  _54
REMARK   26  A    between atoms: _54  and  _55
REMARK   27  A    between atoms: _60  and  _61
REMARK   28  A    between atoms: _63  and  _65
REMARK   29  A    between atoms: _65  and  _66
REMARK   30  A    between atoms: _65  and  _68
REMARK   31  A    between atoms: _68  and  _69
REMARK   32  A    between atoms: _72  and  _74
REMARK   33  A    between atoms: _74  and  _75
REMARK   34  A    between atoms: _74  and  _77
REMARK   35  A    between atoms: _80  and  _82
REMARK   36  A    between atoms: _82  and  _83
REMARK   37  A    between atoms: _82  and  _85
REMARK   38  A    between atoms: _85  and  _86
REMARK   39  A    between atoms: _89  and  _91
REMARK   40  A    between atoms: _91  and  _92
REMARK   41  A    between atoms: _91  and  _94
REMARK   42  A    between atoms: _94  and  _95
REMARK   43  A    between atoms: _98  and  _100
REMARK   44  A    between atoms: _100  and  _101
REMARK   45  A    between atoms: _103  and  _105
REMARK   46  A    between atoms: _105  and  _106
REMARK   47  A    between atoms: _105  and  _108
REMARK   48  A    between atoms: _108  and  _109
REMARK   49  A    between atoms: _111  and  _113
REMARK   50  A    between atoms: _113  and  _114
REMARK   51  A    between atoms: _113  and  _116
REMARK   52  A    between atoms: _116  and  _117
REMARK   53  A    between atoms: _119  and  _121
REMARK   54  A    between atoms: _121  and  _122
REMARK   55  A    between atoms: _121  and  _124
REMARK   56  A    between atoms: _124  and  _125
REMARK   57  A    between atoms: _130  and  _132
REMARK   58  A    between atoms: _132  and  _133
REMARK   59  A    between atoms: _132  and  _135
REMARK   60  A    between atoms: _135  and  _136
REMARK   61  A    between atoms: _141  and  _142
REMARK   62  A    between atoms: _144  and  _146
REMARK   63  A    between atoms: _146  and  _147
REMARK   64  A    between atoms: _146  and  _149
REMARK   65  A    between atoms: _153  and  _154
REMARK   66  A    between atoms: _159  and  _161
REMARK   67  A    between atoms: _161  and  _162
REMARK   68  A    between atoms: _161  and  _164
REMARK   69  A    between atoms: _164  and  _165
REMARK   70  A    between atoms: _170  and  _171
REMARK   71  A    between atoms: _173  and  _175
REMARK   72  A    between atoms: _175  and  _176
REMARK   73  A    between atoms: _175  and  _178
REMARK   74  A    between atoms: _178  and  _179
REMARK   75  A    between atoms: _182  and  _184
REMARK   76  A    between atoms: _184  and  _185
REMARK   77  A    between atoms: _184  and  _187
REMARK   78  A    between atoms: _187  and  _188
REMARK   79  A    between atoms: _188  and  _189
REMARK   80  A    between atoms: _194  and  _196
REMARK   81  A    between atoms: _196  and  _197
REMARK   82  A    between atoms: _199  and  _201
REMARK   83  A    between atoms: _201  and  _202
REMARK   84  A    between atoms: _201  and  _204
REMARK   85  A    between atoms: _204  and  _205
REMARK   86  A    between atoms: _205  and  _206
REMARK   87  A    between atoms: _206  and  _207
REMARK   88  A    between atoms: _207  and  _208
REMARK   89  A    between atoms: _212  and  _214
REMARK   90  A    between atoms: _214  and  _215
REMARK   91  A    between atoms: _214  and  _217
REMARK   92  A    between atoms: _217  and  _218
REMARK   93  A    between atoms: _228  and  _230
REMARK   94  A    between atoms: _230  and  _231
REMARK   95  A    between atoms: _230  and  _233
REMARK   96  A    between atoms: _233  and  _234
REMARK   97  A    between atoms: _237  and  _239
REMARK   98  A    between atoms: _239  and  _240
REMARK   99  A    between atoms: _239  and  _242
REMARK  100  A    between atoms: _242  and  _243
REMARK  101  A    between atoms: _243  and  _244
REMARK  102  A    between atoms: _244  and  _245
REMARK  103  A    between atoms: _245  and  _246
REMARK  104  A    between atoms: _250  and  _252
REMARK  105  A    between atoms: _252  and  _253
REMARK  106  A    between atoms: _252  and  _255
REMARK  107  A    between atoms: _255  and  _256
REMARK  108  A    between atoms: _262  and  _264
REMARK  109  A    between atoms: _264  and  _265
REMARK  110  A    between atoms: _264  and  _267
REMARK  111  A    between atoms: _267  and  _268
REMARK  112  A    between atoms: _274  and  _276
REMARK  113  A    between atoms: _276  and  _277
REMARK  114  A    between atoms: _276  and  _279
REMARK  115  A    between atoms: _279  and  _280
REMARK  116  A    between atoms: _283  and  _285
REMARK  117  A    between atoms: _285  and  _286
REMARK  118  A    between atoms: _285  and  _288
REMARK  119  A    between atoms: _288  and  _289
REMARK  120  A    between atoms: _291  and  _293
REMARK  121  A    between atoms: _293  and  _294
REMARK  122  A    between atoms: _293  and  _296
REMARK  123  A    between atoms: _296  and  _297
REMARK  124  A    between atoms: _307  and  _309
REMARK  125  A    between atoms: _309  and  _310
REMARK  126  A    between atoms: _312  and  _314
REMARK  127  A    between atoms: _314  and  _315
REMARK  128  A    between atoms: _314  and  _317
REMARK  129  A    between atoms: _317  and  _318
REMARK  130  A    between atoms: _321  and  _323
REMARK  131  A    between atoms: _323  and  _324
REMARK  132  A    between atoms: _323  and  _326
REMARK  133  A    between atoms: _326  and  _327
REMARK  134  A    between atoms: _330  and  _332
REMARK  135  A    between atoms: _332  and  _333
REMARK  136  A    between atoms: _332  and  _335
REMARK  137  A    between atoms: _335  and  _336
REMARK  138  A    between atoms: _339  and  _341
REMARK  139  A    between atoms: _341  and  _342
REMARK  140  A    between atoms: _345  and  _347
REMARK  141  A    between atoms: _347  and  _348
REMARK  142  A    between atoms: _347  and  _350
REMARK  143  A    between atoms: _350  and  _351
REMARK  144  A    between atoms: _356  and  _357
REMARK  145  A    between atoms: _359  and  _361
REMARK  146  A    between atoms: _361  and  _362
REMARK  147  A    between atoms: _361  and  _364
REMARK  148  A    between atoms: _364  and  _365
REMARK  149  A    between atoms: _365  and  _366
REMARK  150  A    between atoms: _369  and  _371
REMARK  151  A    between atoms: _371  and  _372
REMARK  152  A    between atoms: _371  and  _374
REMARK  153  A    between atoms: _374  and  _375
REMARK  154  A    between atoms: _378  and  _380
REMARK  155  A    between atoms: _380  and  _381
REMARK  156  A    between atoms: _384  and  _386
REMARK  157  A    between atoms: _386  and  _387
REMARK  158  A    between atoms: _386  and  _389
REMARK  159  A    between atoms: _389  and  _390
REMARK  160  A    between atoms: _390  and  _391
REMARK  161  A    between atoms: _391  and  _392
REMARK  162  A    between atoms: _401  and  _403
REMARK  163  A    between atoms: _403  and  _404
REMARK  164  A    between atoms: _403  and  _406
REMARK  165  A    between atoms: _406  and  _407
REMARK  166  A    between atoms: _410  and  _412
REMARK  167  A    between atoms: _412  and  _413
REMARK  168  A    between atoms: _412  and  _415
REMARK  169  A    between atoms: _415  and  _416
REMARK  170  A    between atoms: _426  and  _428
REMARK  171  A    between atoms: _428  and  _429
REMARK  172  A    between atoms: _428  and  _431
REMARK  173  A    between atoms: _431  and  _432
REMARK  174  A    between atoms: _437  and  _438
REMARK  175  A    between atoms: _440  and  _442
REMARK  176  A    between atoms: _442  and  _443
REMARK  177  A    between atoms: _442  and  _445
REMARK  178  A    between atoms: _445  and  _446
REMARK  179  A    between atoms: _451  and  _452
REMARK  180  A    between atoms: _454  and  _456
REMARK  181  A    between atoms: _456  and  _457
REMARK  182  A    between atoms: _456  and  _459
REMARK  183  A    between atoms: _459  and  _460
REMARK  184  A    between atoms: _460  and  _461
REMARK  185  A    between atoms: _461  and  _462
REMARK  186  A    between atoms: _462  and  _463
REMARK  187  A    between atoms: _467  and  _469
REMARK  188  A    between atoms: _469  and  _470
REMARK  189  A    between atoms: _469  and  _472
REMARK  190  A    between atoms: _472  and  _473
REMARK  191  A    between atoms: _476  and  _478
REMARK  192  A    between atoms: _478  and  _479
REMARK  193  A    between atoms: _478  and  _481
REMARK  194  A    between atoms: _484  and  _486
REMARK  195  A    between atoms: _486  and  _487
REMARK  196  A    between atoms: _486  and  _489
REMARK  197  A    between atoms: _489  and  _490
REMARK  198  A    between atoms: _493  and  _495
REMARK  199  A    between atoms: _495  and  _496
REMARK  200  A    between atoms: _495  and  _498
REMARK  201  A    between atoms: _498  and  _499
REMARK  202  A    between atoms: _501  and  _503
REMARK  203  A    between atoms: _503  and  _504
REMARK  204  A    between atoms: _506  and  _508
REMARK  205  A    between atoms: _508  and  _509
REMARK  206  A    between atoms: _508  and  _511
REMARK  207  A    between atoms: _511  and  _512
REMARK  208  A    between atoms: _515  and  _517
REMARK  209  A    between atoms: _517  and  _518
REMARK  210  A    between atoms: _517  and  _520
REMARK  211  A    between atoms: _520  and  _521
REMARK  212  A    between atoms: _524  and  _526
REMARK  213  A    between atoms: _526  and  _527
REMARK  214  A    between atoms: _526  and  _529
REMARK  215  A    between atoms: _529  and  _530
REMARK  216  A    between atoms: _535  and  _537
REMARK  217  A    between atoms: _537  and  _538
REMARK  218  A    between atoms: _537  and  _540
REMARK  219  A    between atoms: _540  and  _541
REMARK  220  A    between atoms: _544  and  _546
REMARK  221  A    between atoms: _546  and  _547
REMARK  222  A    between atoms: _546  and  _549
REMARK  223  A    between atoms: _549  and  _550
REMARK  224  A    between atoms: _550  and  _551
REMARK  225  A    between atoms: _551  and  _552
REMARK  226  A    between atoms: _561  and  _563
REMARK  227  A    between atoms: _563  and  _564
REMARK  228  A    between atoms: _563  and  _566
REMARK  229  A    between atoms: _566  and  _567
REMARK  230  A    between atoms: _570  and  _572
REMARK  231  A    between atoms: _572  and  _573
REMARK  232  A    between atoms: _572  and  _575
REMARK  233  A    between atoms: _575  and  _576
REMARK  234  A    between atoms: _579  and  _581
REMARK  235  A    between atoms: _581  and  _582
REMARK  236  A    between atoms: _584  and  _586
REMARK  237  A    between atoms: _586  and  _587
REMARK  238  A    between atoms: _586  and  _589
REMARK  239  A    between atoms: _589  and  _590
REMARK  240  A    between atoms: _590  and  _591
REMARK  241  A    between atoms: _591  and  _592
REMARK  242  A    between atoms: _601  and  _603
REMARK  243  A    between atoms: _603  and  _604
REMARK  244  A    between atoms: _603  and  _606
REMARK  245  A    between atoms: _606  and  _607
REMARK  246  A    between atoms: _613  and  _615
REMARK  247  A    between atoms: _615  and  _616
REMARK  248  A    between atoms: _619  and  _621
REMARK  249  A    between atoms: _621  and  _622
REMARK  250  A    between atoms: _621  and  _624
REMARK  251  A    between atoms: _624  and  _625
REMARK  252  A    between atoms: _628  and  _630
REMARK  253  A    between atoms: _630  and  _631
REMARK  254  A    between atoms: _630  and  _633
REMARK  255  A    between atoms: _633  and  _634
REMARK  256  A    between atoms: _636  and  _638
REMARK  257  A    between atoms: _638  and  _639
REMARK  258  A    between atoms: _638  and  _641
REMARK  259  A    between atoms: _641  and  _642
REMARK  260  A    between atoms: _642  and  _643
REMARK  261  A    between atoms: _648  and  _650
REMARK  262  A    between atoms: _650  and  _651
REMARK  263  A    between atoms: _650  and  _653
REMARK  264  A    between atoms: _653  and  _654
REMARK  265  A    between atoms: _656  and  _658
REMARK  266  A    between atoms: _658  and  _659
REMARK  267  A    between atoms: _658  and  _661
REMARK  268  A    between atoms: _661  and  _662
REMARK  269  A    between atoms: _665  and  _667
REMARK  270  A    between atoms: _667  and  _668
REMARK  271  A    between atoms: _667  and  _670
REMARK  272  A    between atoms: _670  and  _671
REMARK  273  A    between atoms: _674  and  _676
REMARK  274  A    between atoms: _676  and  _677
REMARK  275  A    between atoms: _676  and  _679
REMARK  276  A    between atoms: _682  and  _684
REMARK  277  A    between atoms: _684  and  _685
REMARK  278  A    between atoms: _684  and  _687
REMARK  279  A    between atoms: _687  and  _688
REMARK  280  A    between atoms: _688  and  _689
REMARK  281  A    between atoms: _691  and  _693
REMARK  282  A    between atoms: _693  and  _694
REMARK  283  A    between atoms: _696  and  _698
REMARK  284  A    between atoms: _698  and  _699
REMARK  285  A    between atoms: _702  and  _704
REMARK  286  A    between atoms: _704  and  _705
REMARK  287  A    between atoms: _704  and  _707
REMARK  288  A    between atoms: _710  and  _712
REMARK  289  A    between atoms: _712  and  _713
REMARK  290  A    between atoms: _712  and  _715
REMARK  291  A    between atoms: _715  and  _716
REMARK  292  A    between atoms: _716  and  _717
REMARK  293  A    between atoms: _719  and  _721
REMARK  294  A    between atoms: _721  and  _722
REMARK  295  A    between atoms: _721  and  _724
REMARK  296  A    between atoms: _724  and  _725
REMARK  297  A    between atoms: _725  and  _726
REMARK                            x       y       z     vdW  Elec       q    Type
REMARK                         _______ _______ _______ _____ _____    ______ ____
ROOT
ATOM      1  CA  SER A   1       5.628 -13.922  33.650  0.00  0.00    +0.163 C 
ENDROOT
BRANCH   1   2
ATOM      2  N   SER A   1       5.862 -14.912  32.612  0.00  0.00    -0.237 NA
ATOM      3  H   SER A   1       5.150 -15.054  31.868  0.00  0.00    +0.142 HD
ENDBRANCH   1   2
BRANCH   1   4
ATOM      4  C   SER A   1       5.713 -14.543  35.044  0.00  0.00    +0.227 C 
ATOM      5  O   SER A   1       6.243 -13.932  35.979  0.00  0.00    -0.287 OA
ENDBRANCH   1   4
BRANCH   1   6
ATOM      6  CB  SER A   1       4.254 -13.291  33.463  0.00  0.00    +0.162 C 
BRANCH   6   7
ATOM      7  OG  SER A   1       3.234 -14.226  33.746  0.00  0.00    -0.380 OA
ATOM      8  H   SER A   1       2.351 -13.798  33.619  0.00  0.00    +0.211 HD
ENDBRANCH   6   7
ENDBRANCH   1   6
TORSDOF 4
REMARK  Name = ../refined-set-2016/2p4j/2p4j_pocket.pdb
REMARK  297 active torsions:
REMARK  status: ('A' for Active; 'I' for Inactive)
REMARK    1  A    between atoms: _1  and  _3
REMARK    2  A    between atoms: _3  and  _4
REMARK    3  A    between atoms: _6  and  _8
REMARK    4  A    between atoms: _8  and  _9
REMARK    5  A    between atoms: _8  and  _11
REMARK    6  A    between atoms: _11  and  _12
REMARK    7  A    between atoms: _12  and  _13
REMARK    8  A    between atoms: _13  and  _14
REMARK    9  A    between atoms: _14  and  _15
REMARK   10  A    between atoms: _19  and  _21
REMARK   11  A    between atoms: _21  and  _22
REMARK   12  A    between atoms: _21  and  _24
REMARK   13  A    between atoms: _24  and  _25
REMARK   14  A    between atoms: _27  and  _29
REMARK   15  A    between atoms: _29  and  _30
REMARK   16  A    between atoms: _32  and  _34
REMARK   17  A    between atoms: _34  and  _35
REMARK   18  A    between atoms: _34  and  _37
REMARK   19  A    between atoms: _37  and  _38
REMARK   20  A    between atoms: _38  and  _39
REMARK   21  A    between atoms: _44  and  _46
REMARK   22  A    between atoms: _46  and  _47
REMARK   23  A    between atoms: _49  and  _51
REMARK   24  A    between atoms: _51  and  _52
REMARK   25  A    between atoms: _51  and  _54
REMARK   26  A    between atoms: _54  and  _55
REMARK   27  A    between atoms: _60  and  _61
REMARK   28  A    between atoms: _63  and  _65
REMARK   29  A    between atoms: _65  and  _66
REMARK   30  A    between atoms: _65  and  _68
REMARK   31  A    between atoms: _68  and  _69
REMARK   32  A    between atoms: _72  and  _74
REMARK   33  A    between atoms: _74  and  _75
REMARK   34  A    between atoms: _74  and  _77
REMARK   35  A    between atoms: _80  and  _82
REMARK   36  A    between atoms: _82  and  _83
REMARK   37  A    between atoms: _82  and  _85
REMARK   38  A    between atoms: _85  and  _86
REMARK   39  A    between atoms: _89  and  _91
REMARK   40  A    between atoms: _91  and  _92
REMARK   41  A    between atoms: _91  and  _94
REMARK   42  A    between atoms: _94  and  _95
REMARK   43  A    between atoms: _98  and  _100
REMARK   44  A    between atoms: _100  and  _101
REMARK   45  A    between atoms: _103  and  _105
REMARK   46  A    between atoms: _105  and  _106
REMARK   47  A    between atoms: _105  and  _108
REMARK   48  A    between atoms: _108  and  _109
REMARK   49  A    between atoms: _111  and  _113
REMARK   50  A    between atoms: _113  and  _114
REMARK   51  A    between atoms: _113  and  _116
REMARK   52  A    between atoms: _116  and  _117
REMARK   53  A    between atoms: _119  and  _121
REMARK   54  A    between atoms: _121  and  _122
REMARK   55  A    between atoms: _121  and  _124
REMARK   56  A    between atoms: _124  and  _125
REMARK   57  A    between atoms: _130  and  _132
REMARK   58  A    between atoms: _132  and  _133
REMARK   59  A    between atoms: _132  and  _135
REMARK   60  A    between atoms: _135  and  _136
REMARK   61  A    between atoms: _141  and  _142
REMARK   62  A    between atoms: _144  and  _146
REMARK   63  A    between atoms: _146  and  _147
REMARK   64  A    between atoms: _146  and  _149
REMARK   65  A    between atoms: _153  and  _154
REMARK   66  A    between atoms: _159  and  _161
REMARK   67  A    between atoms: _161  and  _162
REMARK   68  A    between atoms: _161  and  _164
REMARK   69  A    between atoms: _164  and  _165
REMARK   70  A    between atoms: _170  and  _171
REMARK   71  A    between atoms: _173  and  _175
REMARK   72  A    between atoms: _175  and  _176
REMARK   73  A    between atoms: _175  and  _178
REMARK   74  A    between atoms: _178  and  _179
REMARK   75  A    between atoms: _182  and  _184
REMARK   76  A    between atoms: _184  and  _185
REMARK   77  A    between atoms: _184  and  _187
REMARK   78  A    between atoms: _187  and  _188
REMARK   79  A    between atoms: _188  and  _189
REMARK   80  A    between atoms: _194  and  _196
REMARK   81  A    between atoms: _196  and  _197
REMARK   82  A    between atoms: _199  and  _201
REMARK   83  A    between atoms: _201  and  _202
REMARK   84  A    between atoms: _201  and  _204
REMARK   85  A    between atoms: _204  and  _205
REMARK   86  A    between atoms: _205  and  _206
REMARK   87  A    between atoms: _206  and  _207
REMARK   88  A    between atoms: _207  and  _208
REMARK   89  A    between atoms: _212  and  _214
REMARK   90  A    between atoms: _214  and  _215
REMARK   91  A    between atoms: _214  and  _217
REMARK   92  A    between atoms: _217  and  _218
REMARK   93  A    between atoms: _228  and  _230
REMARK   94  A    between atoms: _230  and  _231
REMARK   95  A    between atoms: _230  and  _233
REMARK   96  A    between atoms: _233  and  _234
REMARK   97  A    between atoms: _237  and  _239
REMARK   98  A    between atoms: _239  and  _240
REMARK   99  A    between atoms: _239  and  _242
REMARK  100  A    between atoms: _242  and  _243
REMARK  101  A    between atoms: _243  and  _244
REMARK  102  A    between atoms: _244  and  _245
REMARK  103  A    between atoms: _245  and  _246
REMARK  104  A    between atoms: _250  and  _252
REMARK  105  A    between atoms: _252  and  _253
REMARK  106  A    between atoms: _252  and  _255
REMARK  107  A    between atoms: _255  and  _256
REMARK  108  A    between atoms: _262  and  _264
REMARK  109  A    between atoms: _264  and  _265
REMARK  110  A    between atoms: _264  and  _267
REMARK  111  A    between atoms: _267  and  _268
REMARK  112  A    between atoms: _274  and  _276
REMARK  113  A    between atoms: _276  and  _277
REMARK  114  A    between atoms: _276  and  _279
REMARK  115  A    between atoms: _279  and  _280
REMARK  116  A    between atoms: _283  and  _285
REMARK  117  A    between atoms: _285  and  _286
REMARK  118  A    between atoms: _285  and  _288
REMARK  119  A    between atoms: _288  and  _289
REMARK  120  A    between atoms: _291  and  _293
REMARK  121  A    between atoms: _293  and  _294
REMARK  122  A    between atoms: _293  and  _296
REMARK  123  A    between atoms: _296  and  _297
REMARK  124  A    between atoms: _307  and  _309
REMARK  125  A    between atoms: _309  and  _310
REMARK  126  A    between atoms: _312  and  _314
REMARK  127  A    between atoms: _314  and  _315
REMARK  128  A    between atoms: _314  and  _317
REMARK  129  A    between atoms: _317  and  _318
REMARK  130  A    between atoms: _321  and  _323
REMARK  131  A    between atoms: _323  and  _324
REMARK  132  A    between atoms: _323  and  _326
REMARK  133  A    between atoms: _326  and  _327
REMARK  134  A    between atoms: _330  and  _332
REMARK  135  A    between atoms: _332  and  _333
REMARK  136  A    between atoms: _332  and  _335
REMARK  137  A    between atoms: _335  and  _336
REMARK  138  A    between atoms: _339  and  _341
REMARK  139  A    between atoms: _341  and  _342
REMARK  140  A    between atoms: _345  and  _347
REMARK  141  A    between atoms: _347  and  _348
REMARK  142  A    between atoms: _347  and  _350
REMARK  143  A    between atoms: _350  and  _351
REMARK  144  A    between atoms: _356  and  _357
REMARK  145  A    between atoms: _359  and  _361
REMARK  146  A    between atoms: _361  and  _362
REMARK  147  A    between atoms: _361  and  _364
REMARK  148  A    between atoms: _364  and  _365
REMARK  149  A    between atoms: _365  and  _366
REMARK  150  A    between atoms: _369  and  _371
REMARK  151  A    between atoms: _371  and  _372
REMARK  152  A    between atoms: _371  and  _374
REMARK  153  A    between atoms: _374  and  _375
REMARK  154  A    between atoms: _378  and  _380
REMARK  155  A    between atoms: _380  and  _381
REMARK  156  A    between atoms: _384  and  _386
REMARK  157  A    between atoms: _386  and  _387
REMARK  158  A    between atoms: _386  and  _389
REMARK  159  A    between atoms: _389  and  _390
REMARK  160  A    between atoms: _390  and  _391
REMARK  161  A    between atoms: _391  and  _392
REMARK  162  A    between atoms: _401  and  _403
REMARK  163  A    between atoms: _403  and  _404
REMARK  164  A    between atoms: _403  and  _406
REMARK  165  A    between atoms: _406  and  _407
REMARK  166  A    between atoms: _410  and  _412
REMARK  167  A    between atoms: _412  and  _413
REMARK  168  A    between atoms: _412  and  _415
REMARK  169  A    between atoms: _415  and  _416
REMARK  170  A    between atoms: _426  and  _428
REMARK  171  A    between atoms: _428  and  _429
REMARK  172  A    between atoms: _428  and  _431
REMARK  173  A    between atoms: _431  and  _432
REMARK  174  A    between atoms: _437  and  _438
REMARK  175  A    between atoms: _440  and  _442
REMARK  176  A    between atoms: _442  and  _443
REMARK  177  A    between atoms: _442  and  _445
REMARK  178  A    between atoms: _445  and  _446
REMARK  179  A    between atoms: _451  and  _452
REMARK  180  A    between atoms: _454  and  _456
REMARK  181  A    between atoms: _456  and  _457
REMARK  182  A    between atoms: _456  and  _459
REMARK  183  A    between atoms: _459  and  _460
REMARK  184  A    between atoms: _460  and  _461
REMARK  185  A    between atoms: _461  and  _462
REMARK  186  A    between atoms: _462  and  _463
REMARK  187  A    between atoms: _467  and  _469
REMARK  188  A    between atoms: _469  and  _470
REMARK  189  A    between atoms: _469  and  _472
REMARK  190  A    between atoms: _472  and  _473
REMARK  191  A    between atoms: _476  and  _478
REMARK  192  A    between atoms: _478  and  _479
REMARK  193  A    between atoms: _478  and  _481
REMARK  194  A    between atoms: _484  and  _486
REMARK  195  A    between atoms: _486  and  _487
REMARK  196  A    between atoms: _486  and  _489
REMARK  197  A    between atoms: _489  and  _490
REMARK  198  A    between atoms: _493  and  _495
REMARK  199  A    between atoms: _495  and  _496
REMARK  200  A    between atoms: _495  and  _498
REMARK  201  A    between atoms: _498  and  _499
REMARK  202  A    between atoms: _501  and  _503
REMARK  203  A    between atoms: _503  and  _504
REMARK  204  A    between atoms: _506  and  _508
REMARK  205  A    between atoms: _508  and  _509
REMARK  206  A    between atoms: _508  and  _511
REMARK  207  A    between atoms: _511  and  _512
REMARK  208  A    between atoms: _515  and  _517
REMARK  209  A    between atoms: _517  and  _518
REMARK  210  A    between atoms: _517  and  _520
REMARK  211  A    between atoms: _520  and  _521
REMARK  212  A    between atoms: _524  and  _526
REMARK  213  A    between atoms: _526  and  _527
REMARK  214  A    between atoms: _526  and  _529
REMARK  215  A    between atoms: _529  and  _530
REMARK  216  A    between atoms: _535  and  _537
REMARK  217  A    between atoms: _537  and  _538
REMARK  218  A    between atoms: _537  and  _540
REMARK  219  A    between atoms: _540  and  _541
REMARK  220  A    between atoms: _544  and  _546
REMARK  221  A    between atoms: _546  and  _547
REMARK  222  A    between atoms: _546  and  _549
REMARK  223  A    between atoms: _549  and  _550
REMARK  224  A    between atoms: _550  and  _551
REMARK  225  A    between atoms: _551  and  _552
REMARK  226  A    between atoms: _561  and  _563
REMARK  227  A    between atoms: _563  and  _564
REMARK  228  A    between atoms: _563  and  _566
REMARK  229  A    between atoms: _566  and  _567
REMARK  230  A    between atoms: _570  and  _572
REMARK  231  A    between atoms: _572  and  _573
REMARK  232  A    between atoms: _572  and  _575
REMARK  233  A    between atoms: _575  and  _576
REMARK  234  A    between atoms: _579  and  _581
REMARK  235  A    between atoms: _581  and  _582
REMARK  236  A    between atoms: _584  and  _586
REMARK  237  A    between atoms: _586  and  _587
REMARK  238  A    between atoms: _586  and  _589
REMARK  239  A    between atoms: _589  and  _590
REMARK  240  A    between atoms: _590  and  _591
REMARK  241  A    between atoms: _591  and  _592
REMARK  242  A    between atoms: _601  and  _603
REMARK  243  A    between atoms: _603  and  _604
REMARK  244  A    between atoms: _603  and  _606
REMARK  245  A    between atoms: _606  and  _607
REMARK  246  A    between atoms: _613  and  _615
REMARK  247  A    between atoms: _615  and  _616
REMARK  248  A    between atoms: _619  and  _621
REMARK  249  A    between atoms: _621  and  _622
REMARK  250  A    between atoms: _621  and  _624
REMARK  251  A    between atoms: _624  and  _625
REMARK  252  A    between atoms: _628  and  _630
REMARK  253  A    between atoms: _630  and  _631
REMARK  254  A    between atoms: _630  and  _633
REMARK  255  A    between atoms: _633  and  _634
REMARK  256  A    between atoms: _636  and  _638
REMARK  257  A    between atoms: _638  and  _639
REMARK  258  A    between atoms: _638  and  _641
REMARK  259  A    between atoms: _641  and  _642
REMARK  260  A    between atoms: _642  and  _643
REMARK  261  A    between atoms: _648  and  _650
REMARK  262  A    between atoms: _650  and  _651
REMARK  263  A    between atoms: _650  and  _653
REMARK  264  A    between atoms: _653  and  _654
REMARK  265  A    between atoms: _656  and  _658
REMARK  266  A    between atoms: _658  and  _659
REMARK  267  A    between atoms: _658  and  _661
REMARK  268  A    between atoms: _661  and  _662
REMARK  269  A    between atoms: _665  and  _667
REMARK  270  A    between atoms: _667  and  _668
REMARK  271  A    between atoms: _667  and  _670
REMARK  272  A    between atoms: _670  and  _671
REMARK  273  A    between atoms: _674  and  _676
REMARK  274  A    between atoms: _676  and  _677
REMARK  275  A    between atoms: _676  and  _679
REMARK  276  A    between atoms: _682  and  _684
REMARK  277  A    between atoms: _684  and  _685
REMARK  278  A    between atoms: _684  and  _687
REMARK  279  A    between atoms: _687  and  _688
REMARK  280  A    between atoms: _688  and  _689
REMARK  281  A    between atoms: _691  and  _693
REMARK  282  A    between atoms: _693  and  _694
REMARK  283  A    between atoms: _696  and  _698
REMARK  284  A    between atoms: _698  and  _699
REMARK  285  A    between atoms: _702  and  _704
REMARK  286  A    between atoms: _704  and  _705
REMARK  287  A    between atoms: _704  and  _707
REMARK  288  A    between atoms: _710  and  _712
REMARK  289  A    between atoms: _712  and  _713
REMARK  290  A    between atoms: _712  and  _715
REMARK  291  A    between atoms: _715  and  _716
REMARK  292  A    between atoms: _716  and  _717
REMARK  293  A    between atoms: _719  and  _721
REMARK  294  A    between atoms: _721  and  _722
REMARK  295  A    between atoms: _721  and  _724
REMARK  296  A    between atoms: _724  and  _725
REMARK  297  A    between atoms: _725  and  _726
REMARK                            x       y       z     vdW  Elec       q    Type
REMARK                         _______ _______ _______ _____ _____    ______ ____
ROOT
ATOM      1  CG  TRP A   1       1.480 -12.894  36.455  0.00  0.00    -0.002 A 
ATOM      2  CD1 TRP A   1       2.512 -12.155  35.973  0.00  0.00    +0.068 A 
ATOM      3  NE1 TRP A   1       2.128 -11.483  34.840  0.00  0.00    -0.352 N 
ATOM      4  CE2 TRP A   1       0.822 -11.783  34.562  0.00  0.00    +0.056 A 
ATOM      5  CZ2 TRP A   1      -0.004 -11.345  33.518  0.00  0.00    +0.017 A 
ATOM      6  CH2 TRP A   1      -1.293 -11.816  33.491  0.00  0.00    +0.001 A 
ATOM      7  CZ3 TRP A   1      -1.769 -12.707  34.474  0.00  0.00    +0.000 A 
ATOM      8  CE3 TRP A   1      -0.943 -13.144  35.514  0.00  0.00    +0.001 A 
ATOM      9  HE1 TRP A   1       2.733 -10.847  34.282  0.00  0.00    +0.166 HD
ATOM     10  CD2 TRP A   1       0.377 -12.677  35.563  0.00  0.00    +0.013 A 
ENDROOT
BRANCH   1  11
ATOM     11  CB  TRP A   1       1.478 -13.700  37.706  0.00  0.00    +0.053 C 
BRANCH  11  12
ATOM     12  CA  TRP A   1       1.777 -15.202  37.575  0.00  0.00    +0.137 C 
BRANCH  12  13
ATOM     13  N   TRP A   1       2.959 -15.487  36.782  0.00  0.00    -0.239 NA
ATOM     14  H   TRP A   1       3.024 -15.151  35.800  0.00  0.00    +0.142 HD
ENDBRANCH  12  13
BRANCH  12  15
ATOM     15  C   TRP A   1       0.622 -15.930  36.918  0.00  0.00    +0.224 C 
ATOM     16  O   TRP A   1       0.543 -16.014  35.692  0.00  0.00    -0.287 OA
ENDBRANCH  12  15
ENDBRANCH  11  12
ENDBRANCH   1  11
TORSDOF 4
REMARK  Name = ../refined-set-2016/2p4j/2p4j_pocket.pdb
REMARK  297 active torsions:
REMARK  status: ('A' for Active; 'I' for Inactive)
REMARK    1  A    between atoms: _1  and  _3
REMARK    2  A    between atoms: _3  and  _4
REMARK    3  A    between atoms: _6  and  _8
REMARK    4  A    between atoms: _8  and  _9
REMARK    5  A    between atoms: _8  and  _11
REMARK    6  A    between atoms: _11  and  _12
REMARK    7  A    between atoms: _12  and  _13
REMARK    8  A    between atoms: _13  and  _14
REMARK    9  A    between atoms: _14  and  _15
REMARK   10  A    between atoms: _19  and  _21
REMARK   11  A    between atoms: _21  and  _22
REMARK   12  A    between atoms: _21  and  _24
REMARK   13  A    between atoms: _24  and  _25
REMARK   14  A    between atoms: _27  and  _29
REMARK   15  A    between atoms: _29  and  _30
REMARK   16  A    between atoms: _32  and  _34
REMARK   17  A    between atoms: _34  and  _35
REMARK   18  A    between atoms: _34  and  _37
REMARK   19  A    between atoms: _37  and  _38
REMARK   20  A    between atoms: _38  and  _39
REMARK   21  A    between atoms: _44  and  _46
REMARK   22  A    between atoms: _46  and  _47
REMARK   23  A    between atoms: _49  and  _51
REMARK   24  A    between atoms: _51  and  _52
REMARK   25  A    between atoms: _51  and  _54
REMARK   26  A    between atoms: _54  and  _55
REMARK   27  A    between atoms: _60  and  _61
REMARK   28  A    between atoms: _63  and  _65
REMARK   29  A    between atoms: _65  and  _66
REMARK   30  A    between atoms: _65  and  _68
REMARK   31  A    between atoms: _68  and  _69
REMARK   32  A    between atoms: _72  and  _74
REMARK   33  A    between atoms: _74  and  _75
REMARK   34  A    between atoms: _74  and  _77
REMARK   35  A    between atoms: _80  and  _82
REMARK   36  A    between atoms: _82  and  _83
REMARK   37  A    between atoms: _82  and  _85
REMARK   38  A    between atoms: _85  and  _86
REMARK   39  A    between atoms: _89  and  _91
REMARK   40  A    between atoms: _91  and  _92
REMARK   41  A    between atoms: _91  and  _94
REMARK   42  A    between atoms: _94  and  _95
REMARK   43  A    between atoms: _98  and  _100
REMARK   44  A    between atoms: _100  and  _101
REMARK   45  A    between atoms: _103  and  _105
REMARK   46  A    between atoms: _105  and  _106
REMARK   47  A    between atoms: _105  and  _108
REMARK   48  A    between atoms: _108  and  _109
REMARK   49  A    between atoms: _111  and  _113
REMARK   50  A    between atoms: _113  and  _114
REMARK   51  A    between atoms: _113  and  _116
REMARK   52  A    between atoms: _116  and  _117
REMARK   53  A    between atoms: _119  and  _121
REMARK   54  A    between atoms: _121  and  _122
REMARK   55  A    between atoms: _121  and  _124
REMARK   56  A    between atoms: _124  and  _125
REMARK   57  A    between atoms: _130  and  _132
REMARK   58  A    between atoms: _132  and  _133
REMARK   59  A    between atoms: _132  and  _135
REMARK   60  A    between atoms: _135  and  _136
REMARK   61  A    between atoms: _141  and  _142
REMARK   62  A    between atoms: _144  and  _146
REMARK   63  A    between atoms: _146  and  _147
REMARK   64  A    between atoms: _146  and  _149
REMARK   65  A    between atoms: _153  and  _154
REMARK   66  A    between atoms: _159  and  _161
REMARK   67  A    between atoms: _161  and  _162
REMARK   68  A    between atoms: _161  and  _164
REMARK   69  A    between atoms: _164  and  _165
REMARK   70  A    between atoms: _170  and  _171
REMARK   71  A    between atoms: _173  and  _175
REMARK   72  A    between atoms: _175  and  _176
REMARK   73  A    between atoms: _175  and  _178
REMARK   74  A    between atoms: _178  and  _179
REMARK   75  A    between atoms: _182  and  _184
REMARK   76  A    between atoms: _184  and  _185
REMARK   77  A    between atoms: _184  and  _187
REMARK   78  A    between atoms: _187  and  _188
REMARK   79  A    between atoms: _188  and  _189
REMARK   80  A    between atoms: _194  and  _196
REMARK   81  A    between atoms: _196  and  _197
REMARK   82  A    between atoms: _199  and  _201
REMARK   83  A    between atoms: _201  and  _202
REMARK   84  A    between atoms: _201  and  _204
REMARK   85  A    between atoms: _204  and  _205
REMARK   86  A    between atoms: _205  and  _206
REMARK   87  A    between atoms: _206  and  _207
REMARK   88  A    between atoms: _207  and  _208
REMARK   89  A    between atoms: _212  and  _214
REMARK   90  A    between atoms: _214  and  _215
REMARK   91  A    between atoms: _214  and  _217
REMARK   92  A    between atoms: _217  and  _218
REMARK   93  A    between atoms: _228  and  _230
REMARK   94  A    between atoms: _230  and  _231
REMARK   95  A    between atoms: _230  and  _233
REMARK   96  A    between atoms: _233  and  _234
REMARK   97  A    between atoms: _237  and  _239
REMARK   98  A    between atoms: _239  and  _240
REMARK   99  A    between atoms: _239  and  _242
REMARK  100  A    between atoms: _242  and  _243
REMARK  101  A    between atoms: _243  and  _244
REMARK  102  A    between atoms: _244  and  _245
REMARK  103  A    between atoms: _245  and  _246
REMARK  104  A    between atoms: _250  and  _252
REMARK  105  A    between atoms: _252  and  _253
REMARK  106  A    between atoms: _252  and  _255
REMARK  107  A    between atoms: _255  and  _256
REMARK  108  A    between atoms: _262  and  _264
REMARK  109  A    between atoms: _264  and  _265
REMARK  110  A    between atoms: _264  and  _267
REMARK  111  A    between atoms: _267  and  _268
REMARK  112  A    between atoms: _274  and  _276
REMARK  113  A    between atoms: _276  and  _277
REMARK  114  A    between atoms: _276  and  _279
REMARK  115  A    between atoms: _279  and  _280
REMARK  116  A    between atoms: _283  and  _285
REMARK  117  A    between atoms: _285  and  _286
REMARK  118  A    between atoms: _285  and  _288
REMARK  119  A    between atoms: _288  and  _289
REMARK  120  A    between atoms: _291  and  _293
REMARK  121  A    between atoms: _293  and  _294
REMARK  122  A    between atoms: _293  and  _296
REMARK  123  A    between atoms: _296  and  _297
REMARK  124  A    between atoms: _307  and  _309
REMARK  125  A    between atoms: _309  and  _310
REMARK  126  A    between atoms: _312  and  _314
REMARK  127  A    between atoms: _314  and  _315
REMARK  128  A    between atoms: _314  and  _317
REMARK  129  A    between atoms: _317  and  _318
REMARK  130  A    between atoms: _321  and  _323
REMARK  131  A    between atoms: _323  and  _324
REMARK  132  A    between atoms: _323  and  _326
REMARK  133  A    between atoms: _326  and  _327
REMARK  134  A    between atoms: _330  and  _332
REMARK  135  A    between atoms: _332  and  _333
REMARK  136  A    between atoms: _332  and  _335
REMARK  137  A    between atoms: _335  and  _336
REMARK  138  A    between atoms: _339  and  _341
REMARK  139  A    between atoms: _341  and  _342
REMARK  140  A    between atoms: _345  and  _347
REMARK  141  A    between atoms: _347  and  _348
REMARK  142  A    between atoms: _347  and  _350
REMARK  143  A    between atoms: _350  and  _351
REMARK  144  A    between atoms: _356  and  _357
REMARK  145  A    between atoms: _359  and  _361
REMARK  146  A    between atoms: _361  and  _362
REMARK  147  A    between atoms: _361  and  _364
REMARK  148  A    between atoms: _364  and  _365
REMARK  149  A    between atoms: _365  and  _366
REMARK  150  A    between atoms: _369  and  _371
REMARK  151  A    between atoms: _371  and  _372
REMARK  152  A    between atoms: _371  and  _374
REMARK  153  A    between atoms: _374  and  _375
REMARK  154  A    between atoms: _378  and  _380
REMARK  155  A    between atoms: _380  and  _381
REMARK  156  A    between atoms: _384  and  _386
REMARK  157  A    between atoms: _386  and  _387
REMARK  158  A    between atoms: _386  and  _389
REMARK  159  A    between atoms: _389  and  _390
REMARK  160  A    between atoms: _390  and  _391
REMARK  161  A    between atoms: _391  and  _392
REMARK  162  A    between atoms: _401  and  _403
REMARK  163  A    between atoms: _403  and  _404
REMARK  164  A    between atoms: _403  and  _406
REMARK  165  A    between atoms: _406  and  _407
REMARK  166  A    between atoms: _410  and  _412
REMARK  167  A    between atoms: _412  and  _413
REMARK  168  A    between atoms: _412  and  _415
REMARK  169  A    between atoms: _415  and  _416
REMARK  170  A    between atoms: _426  and  _428
REMARK  171  A    between atoms: _428  and  _429
REMARK  172  A    between atoms: _428  and  _431
REMARK  173  A    between atoms: _431  and  _432
REMARK  174  A    between atoms: _437  and  _438
REMARK  175  A    between atoms: _440  and  _442
REMARK  176  A    between atoms: _442  and  _443
REMARK  177  A    between atoms: _442  and  _445
REMARK  178  A    between atoms: _445  and  _446
REMARK  179  A    between atoms: _451  and  _452
REMARK  180  A    between atoms: _454  and  _456
REMARK  181  A    between atoms: _456  and  _457
REMARK  182  A    between atoms: _456  and  _459
REMARK  183  A    between atoms: _459  and  _460
REMARK  184  A    between atoms: _460  and  _461
REMARK  185  A    between atoms: _461  and  _462
REMARK  186  A    between atoms: _462  and  _463
REMARK  187  A    between atoms: _467  and  _469
REMARK  188  A    between atoms: _469  and  _470
REMARK  189  A    between atoms: _469  and  _472
REMARK  190  A    between atoms: _472  and  _473
REMARK  191  A    between atoms: _476  and  _478
REMARK  192  A    between atoms: _478  and  _479
REMARK  193  A    between atoms: _478  and  _481
REMARK  194  A    between atoms: _484  and  _486
REMARK  195  A    between atoms: _486  and  _487
REMARK  196  A    between atoms: _486  and  _489
REMARK  197  A    between atoms: _489  and  _490
REMARK  198  A    between atoms: _493  and  _495
REMARK  199  A    between atoms: _495  and  _496
REMARK  200  A    between atoms: _495  and  _498
REMARK  201  A    between atoms: _498  and  _499
REMARK  202  A    between atoms: _501  and  _503
REMARK  203  A    between atoms: _503  and  _504
REMARK  204  A    between atoms: _506  and  _508
REMARK  205  A    between atoms: _508  and  _509
REMARK  206  A    between atoms: _508  and  _511
REMARK  207  A    between atoms: _511  and  _512
REMARK  208  A    between atoms: _515  and  _517
REMARK  209  A    between atoms: _517  and  _518
REMARK  210  A    between atoms: _517  and  _520
REMARK  211  A    between atoms: _520  and  _521
REMARK  212  A    between atoms: _524  and  _526
REMARK  213  A    between atoms: _526  and  _527
REMARK  214  A    between atoms: _526  and  _529
REMARK  215  A    between atoms: _529  and  _530
REMARK  216  A    between atoms: _535  and  _537
REMARK  217  A    between atoms: _537  and  _538
REMARK  218  A    between atoms: _537  and  _540
REMARK  219  A    between atoms: _540  and  _541
REMARK  220  A    between atoms: _544  and  _546
REMARK  221  A    between atoms: _546  and  _547
REMARK  222  A    between atoms: _546  and  _549
REMARK  223  A    between atoms: _549  and  _550
REMARK  224  A    between atoms: _550  and  _551
REMARK  225  A    between atoms: _551  and  _552
REMARK  226  A    between atoms: _561  and  _563
REMARK  227  A    between atoms: _563  and  _564
REMARK  228  A    between atoms: _563  and  _566
REMARK  229  A    between atoms: _566  and  _567
REMARK  230  A    between atoms: _570  and  _572
REMARK  231  A    between atoms: _572  and  _573
REMARK  232  A    between atoms: _572  and  _575
REMARK  233  A    between atoms: _575  and  _576
REMARK  234  A    between atoms: _579  and  _581
REMARK  235  A    between atoms: _581  and  _582
REMARK  236  A    between atoms: _584  and  _586
REMARK  237  A    between atoms: _586  and  _587
REMARK  238  A    between atoms: _586  and  _589
REMARK  239  A    between atoms: _589  and  _590
REMARK  240  A    between atoms: _590  and  _591
REMARK  241  A    between atoms: _591  and  _592
REMARK  242  A    between atoms: _601  and  _603
REMARK  243  A    between atoms: _603  and  _604
REMARK  244  A    between atoms: _603  and  _606
REMARK  245  A    between atoms: _606  and  _607
REMARK  246  A    between atoms: _613  and  _615
REMARK  247  A    between atoms: _615  and  _616
REMARK  248  A    between atoms: _619  and  _621
REMARK  249  A    between atoms: _621  and  _622
REMARK  250  A    between atoms: _621  and  _624
REMARK  251  A    between atoms: _624  and  _625
REMARK  252  A    between atoms: _628  and  _630
REMARK  253  A    between atoms: _630  and  _631
REMARK  254  A    between atoms: _630  and  _633
REMARK  255  A    between atoms: _633  and  _634
REMARK  256  A    between atoms: _636  and  _638
REMARK  257  A    between atoms: _638  and  _639
REMARK  258  A    between atoms: _638  and  _641
REMARK  259  A    between atoms: _641  and  _642
REMARK  260  A    between atoms: _642  and  _643
REMARK  261  A    between atoms: _648  and  _650
REMARK  262  A    between atoms: _650  and  _651
REMARK  263  A    between atoms: _650  and  _653
REMARK  264  A    between atoms: _653  and  _654
REMARK  265  A    between atoms: _656  and  _658
REMARK  266  A    between atoms: _658  and  _659
REMARK  267  A    between atoms: _658  and  _661
REMARK  268  A    between atoms: _661  and  _662
REMARK  269  A    between atoms: _665  and  _667
REMARK  270  A    between atoms: _667  and  _668
REMARK  271  A    between atoms: _667  and  _670
REMARK  272  A    between atoms: _670  and  _671
REMARK  273  A    between atoms: _674  and  _676
REMARK  274  A    between atoms: _676  and  _677
REMARK  275  A    between atoms: _676  and  _679
REMARK  276  A    between atoms: _682  and  _684
REMARK  277  A    between atoms: _684  and  _685
REMARK  278  A    between atoms: _684  and  _687
REMARK  279  A    between atoms: _687  and  _688
REMARK  280  A    between atoms: _688  and  _689
REMARK  281  A    between atoms: _691  and  _693
REMARK  282  A    between atoms: _693  and  _694
REMARK  283  A    between atoms: _696  and  _698
REMARK  284  A    between atoms: _698  and  _699
REMARK  285  A    between atoms: _702  and  _704
REMARK  286  A    between atoms: _704  and  _705
REMARK  287  A    between atoms: _704  and  _707
REMARK  288  A    between atoms: _710  and  _712
REMARK  289  A    between atoms: _712  and  _713
REMARK  290  A    between atoms: _712  and  _715
REMARK  291  A    between atoms: _715  and  _716
REMARK  292  A    between atoms: _716  and  _717
REMARK  293  A    between atoms: _719  and  _721
REMARK  294  A    between atoms: _721  and  _722
REMARK  295  A    between atoms: _721  and  _724
REMARK  296  A    between atoms: _724  and  _725
REMARK  297  A    between atoms: _725  and  _726
REMARK                            x       y       z     vdW  Elec       q    Type
REMARK                         _______ _______ _______ _____ _____    ______ ____
ROOT
ATOM      1  CA  ILE A   2      -4.837 -10.999  38.664  0.00  0.00    +0.148 C 
ENDROOT
BRANCH   1   3
ATOM      2  C   GLY A   1      -3.737 -13.152  38.399  0.00  0.00    +0.240 C 
ATOM      3  N   ILE A   2      -4.843 -12.446  38.609  0.00  0.00    -0.297 N 
ATOM      4  H   ILE A   2      -5.744 -12.950  38.738  0.00  0.00    +0.150 HD
ATOM      5  O   GLY A   1      -2.627 -12.638  38.265  0.00  0.00    -0.274 OA
BRANCH   2   6
ATOM      6  CA  GLY A   1      -3.919 -14.656  38.348  0.00  0.00    +0.169 C 
BRANCH   6   7
ATOM      7  N   GLY A   1      -2.682 -15.367  38.086  0.00  0.00    -0.236 NA
ATOM      8  H   GLY A   1      -1.774 -14.965  38.395  0.00  0.00    +0.142 HD
ENDBRANCH   6   7
ENDBRANCH   2   6
ENDBRANCH   1   3
BRANCH   1   9
ATOM      9  C   ILE A   2      -5.660 -10.471  39.841  0.00  0.00    +0.241 C 
ATOM     10  N   LEU A   3      -5.096  -9.504  40.556  0.00  0.00    -0.298 N 
ATOM     11  H   LEU A   3      -4.148  -9.170  40.289  0.00  0.00    +0.150 HD
ATOM     12  O   ILE A   2      -6.776 -10.929  40.097  0.00  0.00    -0.273 OA
BRANCH  10  13
ATOM     13  CA  LEU A   3      -5.758  -8.897  41.699  0.00  0.00    +0.137 C 
BRANCH  13  14
ATOM     14  C   LEU A   3      -6.148  -7.466  41.366  0.00  0.00    +0.227 C 
ATOM     15  O   LEU A   3      -5.348  -6.542  41.527  0.00  0.00    -0.286 OA
ENDBRANCH  13  14
BRANCH  13  16
ATOM     16  CB  LEU A   3      -4.832  -8.897  42.911  0.00  0.00    +0.028 C 
BRANCH  16  17
ATOM     17  CG  LEU A   3      -5.365  -8.152  44.126  0.00  0.00    +0.002 C 
ATOM     18  CD2 LEU A   3      -4.308  -8.094  45.192  0.00  0.00    +0.000 C 
ATOM     19  CD1 LEU A   3      -6.575  -8.880  44.637  0.00  0.00    +0.000 C 
ENDBRANCH  16  17
ENDBRANCH  13  16
ENDBRANCH  10  13
ENDBRANCH   1   9
BRANCH   1  20
ATOM     20  CB  ILE A   2      -5.388 -10.432  37.341  0.00  0.00    +0.027 C 
ATOM     21  CG2 ILE A   2      -6.800 -10.962  37.095  0.00  0.00    +0.002 C 
BRANCH  20  22
ATOM     22  CG1 ILE A   2      -5.392  -8.912  37.381  0.00  0.00    +0.002 C 
ATOM     23  CD1 ILE A   2      -5.538  -8.292  36.025  0.00  0.00    +0.000 C 
ENDBRANCH  20  22
ENDBRANCH   1  20
TORSDOF 10
REMARK  Name = ../refined-set-2016/2p4j/2p4j_pocket.pdb
REMARK  297 active torsions:
REMARK  status: ('A' for Active; 'I' for Inactive)
REMARK    1  A    between atoms: _1  and  _3
REMARK    2  A    between atoms: _3  and  _4
REMARK    3  A    between atoms: _6  and  _8
REMARK    4  A    between atoms: _8  and  _9
REMARK    5  A    between atoms: _8  and  _11
REMARK    6  A    between atoms: _11  and  _12
REMARK    7  A    between atoms: _12  and  _13
REMARK    8  A    between atoms: _13  and  _14
REMARK    9  A    between atoms: _14  and  _15
REMARK   10  A    between atoms: _19  and  _21
REMARK   11  A    between atoms: _21  and  _22
REMARK   12  A    between atoms: _21  and  _24
REMARK   13  A    between atoms: _24  and  _25
REMARK   14  A    between atoms: _27  and  _29
REMARK   15  A    between atoms: _29  and  _30
REMARK   16  A    between atoms: _32  and  _34
REMARK   17  A    between atoms: _34  and  _35
REMARK   18  A    between atoms: _34  and  _37
REMARK   19  A    between atoms: _37  and  _38
REMARK   20  A    between atoms: _38  and  _39
REMARK   21  A    between atoms: _44  and  _46
REMARK   22  A    between atoms: _46  and  _47
REMARK   23  A    between atoms: _49  and  _51
REMARK   24  A    between atoms: _51  and  _52
REMARK   25  A    between atoms: _51  and  _54
REMARK   26  A    between atoms: _54  and  _55
REMARK   27  A    between atoms: _60  and  _61
REMARK   28  A    between atoms: _63  and  _65
REMARK   29  A    between atoms: _65  and  _66
REMARK   30  A    between atoms: _65  and  _68
REMARK   31  A    between atoms: _68  and  _69
REMARK   32  A    between atoms: _72  and  _74
REMARK   33  A    between atoms: _74  and  _75
REMARK   34  A    between atoms: _74  and  _77
REMARK   35  A    between atoms: _80  and  _82
REMARK   36  A    between atoms: _82  and  _83
REMARK   37  A    between atoms: _82  and  _85
REMARK   38  A    between atoms: _85  and  _86
REMARK   39  A    between atoms: _89  and  _91
REMARK   40  A    between atoms: _91  and  _92
REMARK   41  A    between atoms: _91  and  _94
REMARK   42  A    between atoms: _94  and  _95
REMARK   43  A    between atoms: _98  and  _100
REMARK   44  A    between atoms: _100  and  _101
REMARK   45  A    between atoms: _103  and  _105
REMARK   46  A    between atoms: _105  and  _106
REMARK   47  A    between atoms: _105  and  _108
REMARK   48  A    between atoms: _108  and  _109
REMARK   49  A    between atoms: _111  and  _113
REMARK   50  A    between atoms: _113  and  _114
REMARK   51  A    between atoms: _113  and  _116
REMARK   52  A    between atoms: _116  and  _117
REMARK   53  A    between atoms: _119  and  _121
REMARK   54  A    between atoms: _121  and  _122
REMARK   55  A    between atoms: _121  and  _124
REMARK   56  A    between atoms: _124  and  _125
REMARK   57  A    between atoms: _130  and  _132
REMARK   58  A    between atoms: _132  and  _133
REMARK   59  A    between atoms: _132  and  _135
REMARK   60  A    between atoms: _135  and  _136
REMARK   61  A    between atoms: _141  and  _142
REMARK   62  A    between atoms: _144  and  _146
REMARK   63  A    between atoms: _146  and  _147
REMARK   64  A    between atoms: _146  and  _149
REMARK   65  A    between atoms: _153  and  _154
REMARK   66  A    between atoms: _159  and  _161
REMARK   67  A    between atoms: _161  and  _162
REMARK   68  A    between atoms: _161  and  _164
REMARK   69  A    between atoms: _164  and  _165
REMARK   70  A    between atoms: _170  and  _171
REMARK   71  A    between atoms: _173  and  _175
REMARK   72  A    between atoms: _175  and  _176
REMARK   73  A    between atoms: _175  and  _178
REMARK   74  A    between atoms: _178  and  _179
REMARK   75  A    between atoms: _182  and  _184
REMARK   76  A    between atoms: _184  and  _185
REMARK   77  A    between atoms: _184  and  _187
REMARK   78  A    between atoms: _187  and  _188
REMARK   79  A    between atoms: _188  and  _189
REMARK   80  A    between atoms: _194  and  _196
REMARK   81  A    between atoms: _196  and  _197
REMARK   82  A    between atoms: _199  and  _201
REMARK   83  A    between atoms: _201  and  _202
REMARK   84  A    between atoms: _201  and  _204
REMARK   85  A    between atoms: _204  and  _205
REMARK   86  A    between atoms: _205  and  _206
REMARK   87  A    between atoms: _206  and  _207
REMARK   88  A    between atoms: _207  and  _208
REMARK   89  A    between atoms: _212  and  _214
REMARK   90  A    between atoms: _214  and  _215
REMARK   91  A    between atoms: _214  and  _217
REMARK   92  A    between atoms: _217  and  _218
REMARK   93  A    between atoms: _228  and  _230
REMARK   94  A    between atoms: _230  and  _231
REMARK   95  A    between atoms: _230  and  _233
REMARK   96  A    between atoms: _233  and  _234
REMARK   97  A    between atoms: _237  and  _239
REMARK   98  A    between atoms: _239  and  _240
REMARK   99  A    between atoms: _239  and  _242
REMARK  100  A    between atoms: _242  and  _243
REMARK  101  A    between atoms: _243  and  _244
REMARK  102  A    between atoms: _244  and  _245
REMARK  103  A    between atoms: _245  and  _246
REMARK  104  A    between atoms: _250  and  _252
REMARK  105  A    between atoms: _252  and  _253
REMARK  106  A    between atoms: _252  and  _255
REMARK  107  A    between atoms: _255  and  _256
REMARK  108  A    between atoms: _262  and  _264
REMARK  109  A    between atoms: _264  and  _265
REMARK  110  A    between atoms: _264  and  _267
REMARK  111  A    between atoms: _267  and  _268
REMARK  112  A    between atoms: _274  and  _276
REMARK  113  A    between atoms: _276  and  _277
REMARK  114  A    between atoms: _276  and  _279
REMARK  115  A    between atoms: _279  and  _280
REMARK  116  A    between atoms: _283  and  _285
REMARK  117  A    between atoms: _285  and  _286
REMARK  118  A    between atoms: _285  and  _288
REMARK  119  A    between atoms: _288  and  _289
REMARK  120  A    between atoms: _291  and  _293
REMARK  121  A    between atoms: _293  and  _294
REMARK  122  A    between atoms: _293  and  _296
REMARK  123  A    between atoms: _296  and  _297
REMARK  124  A    between atoms: _307  and  _309
REMARK  125  A    between atoms: _309  and  _310
REMARK  126  A    between atoms: _312  and  _314
REMARK  127  A    between atoms: _314  and  _315
REMARK  128  A    between atoms: _314  and  _317
REMARK  129  A    between atoms: _317  and  _318
REMARK  130  A    between atoms: _321  and  _323
REMARK  131  A    between atoms: _323  and  _324
REMARK  132  A    between atoms: _323  and  _326
REMARK  133  A    between atoms: _326  and  _327
REMARK  134  A    between atoms: _330  and  _332
REMARK  135  A    between atoms: _332  and  _333
REMARK  136  A    between atoms: _332  and  _335
REMARK  137  A    between atoms: _335  and  _336
REMARK  138  A    between atoms: _339  and  _341
REMARK  139  A    between atoms: _341  and  _342
REMARK  140  A    between atoms: _345  and  _347
REMARK  141  A    between atoms: _347  and  _348
REMARK  142  A    between atoms: _347  and  _350
REMARK  143  A    between atoms: _350  and  _351
REMARK  144  A    between atoms: _356  and  _357
REMARK  145  A    between atoms: _359  and  _361
REMARK  146  A    between atoms: _361  and  _362
REMARK  147  A    between atoms: _361  and  _364
REMARK  148  A    between atoms: _364  and  _365
REMARK  149  A    between atoms: _365  and  _366
REMARK  150  A    between atoms: _369  and  _371
REMARK  151  A    between atoms: _371  and  _372
REMARK  152  A    between atoms: _371  and  _374
REMARK  153  A    between atoms: _374  and  _375
REMARK  154  A    between atoms: _378  and  _380
REMARK  155  A    between atoms: _380  and  _381
REMARK  156  A    between atoms: _384  and  _386
REMARK  157  A    between atoms: _386  and  _387
REMARK  158  A    between atoms: _386  and  _389
REMARK  159  A    between atoms: _389  and  _390
REMARK  160  A    between atoms: _390  and  _391
REMARK  161  A    between atoms: _391  and  _392
REMARK  162  A    between atoms: _401  and  _403
REMARK  163  A    between atoms: _403  and  _404
REMARK  164  A    between atoms: _403  and  _406
REMARK  165  A    between atoms: _406  and  _407
REMARK  166  A    between atoms: _410  and  _412
REMARK  167  A    between atoms: _412  and  _413
REMARK  168  A    between atoms: _412  and  _415
REMARK  169  A    between atoms: _415  and  _416
REMARK  170  A    between atoms: _426  and  _428
REMARK  171  A    between atoms: _428  and  _429
REMARK  172  A    between atoms: _428  and  _431
REMARK  173  A    between atoms: _431  and  _432
REMARK  174  A    between atoms: _437  and  _438
REMARK  175  A    between atoms: _440  and  _442
REMARK  176  A    between atoms: _442  and  _443
REMARK  177  A    between atoms: _442  and  _445
REMARK  178  A    between atoms: _445  and  _446
REMARK  179  A    between atoms: _451  and  _452
REMARK  180  A    between atoms: _454  and  _456
REMARK  181  A    between atoms: _456  and  _457
REMARK  182  A    between atoms: _456  and  _459
REMARK  183  A    between atoms: _459  and  _460
REMARK  184  A    between atoms: _460  and  _461
REMARK  185  A    between atoms: _461  and  _462
REMARK  186  A    between atoms: _462  and  _463
REMARK  187  A    between atoms: _467  and  _469
REMARK  188  A    between atoms: _469  and  _470
REMARK  189  A    between atoms: _469  and  _472
REMARK  190  A    between atoms: _472  and  _473
REMARK  191  A    between atoms: _476  and  _478
REMARK  192  A    between atoms: _478  and  _479
REMARK  193  A    between atoms: _478  and  _481
REMARK  194  A    between atoms: _484  and  _486
REMARK  195  A    between atoms: _486  and  _487
REMARK  196  A    between atoms: _486  and  _489
REMARK  197  A    between atoms: _489  and  _490
REMARK  198  A    between atoms: _493  and  _495
REMARK  199  A    between atoms: _495  and  _496
REMARK  200  A    between atoms: _495  and  _498
REMARK  201  A    between atoms: _498  and  _499
REMARK  202  A    between atoms: _501  and  _503
REMARK  203  A    between atoms: _503  and  _504
REMARK  204  A    between atoms: _506  and  _508
REMARK  205  A    between atoms: _508  and  _509
REMARK  206  A    between atoms: _508  and  _511
REMARK  207  A    between atoms: _511  and  _512
REMARK  208  A    between atoms: _515  and  _517
REMARK  209  A    between atoms: _517  and  _518
REMARK  210  A    between atoms: _517  and  _520
REMARK  211  A    between atoms: _520  and  _521
REMARK  212  A    between atoms: _524  and  _526
REMARK  213  A    between atoms: _526  and  _527
REMARK  214  A    between atoms: _526  and  _529
REMARK  215  A    between atoms: _529  and  _530
REMARK  216  A    between atoms: _535  and  _537
REMARK  217  A    between atoms: _537  and  _538
REMARK  218  A    between atoms: _537  and  _540
REMARK  219  A    between atoms: _540  and  _541
REMARK  220  A    between atoms: _544  and  _546
REMARK  221  A    between atoms: _546  and  _547
REMARK  222  A    between atoms: _546  and  _549
REMARK  223  A    between atoms: _549  and  _550
REMARK  224  A    between atoms: _550  and  _551
REMARK  225  A    between atoms: _551  and  _552
REMARK  226  A    between atoms: _561  and  _563
REMARK  227  A    between atoms: _563  and  _564
REMARK  228  A    between atoms: _563  and  _566
REMARK  229  A    between atoms: _566  and  _567
REMARK  230  A    between atoms: _570  and  _572
REMARK  231  A    between atoms: _572  and  _573
REMARK  232  A    between atoms: _572  and  _575
REMARK  233  A    between atoms: _575  and  _576
REMARK  234  A    between atoms: _579  and  _581
REMARK  235  A    between atoms: _581  and  _582
REMARK  236  A    between atoms: _584  and  _586
REMARK  237  A    between atoms: _586  and  _587
REMARK  238  A    between atoms: _586  and  _589
REMARK  239  A    between atoms: _589  and  _590
REMARK  240  A    between atoms: _590  and  _591
REMARK  241  A    between atoms: _591  and  _592
REMARK  242  A    between atoms: _601  and  _603
REMARK  243  A    between atoms: _603  and  _604
REMARK  244  A    between atoms: _603  and  _606
REMARK  245  A    between atoms: _606  and  _607
REMARK  246  A    between atoms: _613  and  _615
REMARK  247  A    between atoms: _615  and  _616
REMARK  248  A    between atoms: _619  and  _621
REMARK  249  A    between atoms: _621  and  _622
REMARK  250  A    between atoms: _621  and  _624
REMARK  251  A    between atoms: _624  and  _625
REMARK  252  A    between atoms: _628  and  _630
REMARK  253  A    between atoms: _630  and  _631
REMARK  254  A    between atoms: _630  and  _633
REMARK  255  A    between atoms: _633  and  _634
REMARK  256  A    between atoms: _636  and  _638
REMARK  257  A    between atoms: _638  and  _639
REMARK  258  A    between atoms: _638  and  _641
REMARK  259  A    between atoms: _641  and  _642
REMARK  260  A    between atoms: _642  and  _643
REMARK  261  A    between atoms: _648  and  _650
REMARK  262  A    between atoms: _650  and  _651
REMARK  263  A    between atoms: _650  and  _653
REMARK  264  A    between atoms: _653  and  _654
REMARK  265  A    between atoms: _656  and  _658
REMARK  266  A    between atoms: _658  and  _659
REMARK  267  A    between atoms: _658  and  _661
REMARK  268  A    between atoms: _661  and  _662
REMARK  269  A    between atoms: _665  and  _667
REMARK  270  A    between atoms: _667  and  _668
REMARK  271  A    between atoms: _667  and  _670
REMARK  272  A    between atoms: _670  and  _671
REMARK  273  A    between atoms: _674  and  _676
REMARK  274  A    between atoms: _676  and  _677
REMARK  275  A    between atoms: _676  and  _679
REMARK  276  A    between atoms: _682  and  _684
REMARK  277  A    between atoms: _684  and  _685
REMARK  278  A    between atoms: _684  and  _687
REMARK  279  A    between atoms: _687  and  _688
REMARK  280  A    between atoms: _688  and  _689
REMARK  281  A    between atoms: _691  and  _693
REMARK  282  A    between atoms: _693  and  _694
REMARK  283  A    between atoms: _696  and  _698
REMARK  284  A    between atoms: _698  and  _699
REMARK  285  A    between atoms: _702  and  _704
REMARK  286  A    between atoms: _704  and  _705
REMARK  287  A    between atoms: _704  and  _707
REMARK  288  A    between atoms: _710  and  _712
REMARK  289  A    between atoms: _712  and  _713
REMARK  290  A    between atoms: _712  and  _715
REMARK  291  A    between atoms: _715  and  _716
REMARK  292  A    between atoms: _716  and  _717
REMARK  293  A    between atoms: _719  and  _721
REMARK  294  A    between atoms: _721  and  _722
REMARK  295  A    between atoms: _721  and  _724
REMARK  296  A    between atoms: _724  and  _725
REMARK  297  A    between atoms: _725  and  _726
REMARK                            x       y       z     vdW  Elec       q    Type
REMARK                         _______ _______ _______ _____ _____    ______ ____
ROOT
ATOM      1  C   ALA A   2     -11.032  -0.806  42.431  0.00  0.00    +0.241 C 
ATOM      2  O   ALA A   2     -11.278  -1.788  43.134  0.00  0.00    -0.273 OA
ATOM      3  N   TYR A   3     -11.941   0.129  42.164  0.00  0.00    -0.298 N 
ATOM      4  H   TYR A   3     -11.706   0.896  41.502  0.00  0.00    +0.150 HD
ENDROOT
BRANCH   1   5
ATOM      5  CA  ALA A   2      -9.649  -0.643  41.792  0.00  0.00    +0.149 C 
ATOM      6  CB  ALA A   2      -9.772  -0.314  40.314  0.00  0.00    +0.031 C 
BRANCH   5   9
ATOM      7  C   LEU A   1      -8.292  -2.135  43.152  0.00  0.00    +0.238 C 
ATOM      8  O   LEU A   1      -8.423  -1.403  44.131  0.00  0.00    -0.274 OA
ATOM      9  N   ALA A   2      -8.847  -1.856  41.976  0.00  0.00    -0.297 N 
ATOM     10  H   ALA A   2      -8.710  -2.507  41.177  0.00  0.00    +0.150 HD
BRANCH   7  11
ATOM     11  CA  LEU A   1      -7.465  -3.421  43.266  0.00  0.00    +0.145 C 
BRANCH  11  12
ATOM     12  N   LEU A   1      -7.343  -4.237  42.067  0.00  0.00    -0.238 NA
ATOM     13  H   LEU A   1      -6.574  -4.028  41.399  0.00  0.00    +0.142 HD
ENDBRANCH  11  12
BRANCH  11  14
ATOM     14  CB  LEU A   1      -6.061  -3.089  43.784  0.00  0.00    +0.026 C 
BRANCH  14  15
ATOM     15  CG  LEU A   1      -5.320  -4.335  44.281  0.00  0.00    +0.002 C 
ATOM     16  CD2 LEU A   1      -5.943  -4.749  45.593  0.00  0.00    +0.000 C 
ATOM     17  CD1 LEU A   1      -3.815  -4.098  44.414  0.00  0.00    +0.000 C 
ENDBRANCH  14  15
ENDBRANCH  11  14
ENDBRANCH   7  11
ENDBRANCH   5   9
ENDBRANCH   1   5
BRANCH   3  18
ATOM     18  CA  TYR A   3     -13.263   0.098  42.784  0.00  0.00    +0.141 C 
BRANCH  18  19
ATOM     19  C   TYR A   3     -14.387  -0.640  42.099  0.00  0.00    +0.227 C 
ATOM     20  O   TYR A   3     -14.444  -0.747  40.876  0.00  0.00    -0.286 OA
ENDBRANCH  18  19
BRANCH  18  21
ATOM     21  CB  TYR A   3     -13.742   1.518  43.074  0.00  0.00    +0.054 C 
BRANCH  21  22
ATOM     22  CG  TYR A   3     -12.810   2.309  43.965  0.00  0.00    -0.020 A 
ATOM     23  CD2 TYR A   3     -12.965   2.303  45.351  0.00  0.00    -0.001 A 
ATOM     24  CE2 TYR A   3     -12.118   3.049  46.176  0.00  0.00    +0.036 A 
ATOM     25  CZ  TYR A   3     -11.107   3.804  45.613  0.00  0.00    +0.134 A 
ATOM     26  CE1 TYR A   3     -10.926   3.825  44.240  0.00  0.00    +0.036 A 
ATOM     27  CD1 TYR A   3     -11.777   3.078  43.422  0.00  0.00    -0.001 A 
BRANCH  25  28
ATOM     28  OH  TYR A   3     -10.291   4.556  46.415  0.00  0.00    -0.506 OA
ATOM     29  HH  TYR A   3      -9.627   5.031  45.855  0.00  0.00    +0.292 HD
ENDBRANCH  25  28
ENDBRANCH  21  22
ENDBRANCH  18  21
ENDBRANCH   3  18
TORSDOF 11
REMARK  Name = ../refined-set-2016/2p4j/2p4j_pocket.pdb
REMARK  297 active torsions:
REMARK  status: ('A' for Active; 'I' for Inactive)
REMARK    1  A    between atoms: _1  and  _3
REMARK    2  A    between atoms: _3  and  _4
REMARK    3  A    between atoms: _6  and  _8
REMARK    4  A    between atoms: _8  and  _9
REMARK    5  A    between atoms: _8  and  _11
REMARK    6  A    between atoms: _11  and  _12
REMARK    7  A    between atoms: _12  and  _13
REMARK    8  A    between atoms: _13  and  _14
REMARK    9  A    between atoms: _14  and  _15
REMARK   10  A    between atoms: _19  and  _21
REMARK   11  A    between atoms: _21  and  _22
REMARK   12  A    between atoms: _21  and  _24
REMARK   13  A    between atoms: _24  and  _25
REMARK   14  A    between atoms: _27  and  _29
REMARK   15  A    between atoms: _29  and  _30
REMARK   16  A    between atoms: _32  and  _34
REMARK   17  A    between atoms: _34  and  _35
REMARK   18  A    between atoms: _34  and  _37
REMARK   19  A    between atoms: _37  and  _38
REMARK   20  A    between atoms: _38  and  _39
REMARK   21  A    between atoms: _44  and  _46
REMARK   22  A    between atoms: _46  and  _47
REMARK   23  A    between atoms: _49  and  _51
REMARK   24  A    between atoms: _51  and  _52
REMARK   25  A    between atoms: _51  and  _54
REMARK   26  A    between atoms: _54  and  _55
REMARK   27  A    between atoms: _60  and  _61
REMARK   28  A    between atoms: _63  and  _65
REMARK   29  A    between atoms: _65  and  _66
REMARK   30  A    between atoms: _65  and  _68
REMARK   31  A    between atoms: _68  and  _69
REMARK   32  A    between atoms: _72  and  _74
REMARK   33  A    between atoms: _74  and  _75
REMARK   34  A    between atoms: _74  and  _77
REMARK   35  A    between atoms: _80  and  _82
REMARK   36  A    between atoms: _82  and  _83
REMARK   37  A    between atoms: _82  and  _85
REMARK   38  A    between atoms: _85  and  _86
REMARK   39  A    between atoms: _89  and  _91
REMARK   40  A    between atoms: _91  and  _92
REMARK   41  A    between atoms: _91  and  _94
REMARK   42  A    between atoms: _94  and  _95
REMARK   43  A    between atoms: _98  and  _100
REMARK   44  A    between atoms: _100  and  _101
REMARK   45  A    between atoms: _103  and  _105
REMARK   46  A    between atoms: _105  and  _106
REMARK   47  A    between atoms: _105  and  _108
REMARK   48  A    between atoms: _108  and  _109
REMARK   49  A    between atoms: _111  and  _113
REMARK   50  A    between atoms: _113  and  _114
REMARK   51  A    between atoms: _113  and  _116
REMARK   52  A    between atoms: _116  and  _117
REMARK   53  A    between atoms: _119  and  _121
REMARK   54  A    between atoms: _121  and  _122
REMARK   55  A    between atoms: _121  and  _124
REMARK   56  A    between atoms: _124  and  _125
REMARK   57  A    between atoms: _130  and  _132
REMARK   58  A    between atoms: _132  and  _133
REMARK   59  A    between atoms: _132  and  _135
REMARK   60  A    between atoms: _135  and  _136
REMARK   61  A    between atoms: _141  and  _142
REMARK   62  A    between atoms: _144  and  _146
REMARK   63  A    between atoms: _146  and  _147
REMARK   64  A    between atoms: _146  and  _149
REMARK   65  A    between atoms: _153  and  _154
REMARK   66  A    between atoms: _159  and  _161
REMARK   67  A    between atoms: _161  and  _162
REMARK   68  A    between atoms: _161  and  _164
REMARK   69  A    between atoms: _164  and  _165
REMARK   70  A    between atoms: _170  and  _171
REMARK   71  A    between atoms: _173  and  _175
REMARK   72  A    between atoms: _175  and  _176
REMARK   73  A    between atoms: _175  and  _178
REMARK   74  A    between atoms: _178  and  _179
REMARK   75  A    between atoms: _182  and  _184
REMARK   76  A    between atoms: _184  and  _185
REMARK   77  A    between atoms: _184  and  _187
REMARK   78  A    between atoms: _187  and  _188
REMARK   79  A    between atoms: _188  and  _189
REMARK   80  A    between atoms: _194  and  _196
REMARK   81  A    between atoms: _196  and  _197
REMARK   82  A    between atoms: _199  and  _201
REMARK   83  A    between atoms: _201  and  _202
REMARK   84  A    between atoms: _201  and  _204
REMARK   85  A    between atoms: _204  and  _205
REMARK   86  A    between atoms: _205  and  _206
REMARK   87  A    between atoms: _206  and  _207
REMARK   88  A    between atoms: _207  and  _208
REMARK   89  A    between atoms: _212  and  _214
REMARK   90  A    between atoms: _214  and  _215
REMARK   91  A    between atoms: _214  and  _217
REMARK   92  A    between atoms: _217  and  _218
REMARK   93  A    between atoms: _228  and  _230
REMARK   94  A    between atoms: _230  and  _231
REMARK   95  A    between atoms: _230  and  _233
REMARK   96  A    between atoms: _233  and  _234
REMARK   97  A    between atoms: _237  and  _239
REMARK   98  A    between atoms: _239  and  _240
REMARK   99  A    between atoms: _239  and  _242
REMARK  100  A    between atoms: _242  and  _243
REMARK  101  A    between atoms: _243  and  _244
REMARK  102  A    between atoms: _244  and  _245
REMARK  103  A    between atoms: _245  and  _246
REMARK  104  A    between atoms: _250  and  _252
REMARK  105  A    between atoms: _252  and  _253
REMARK  106  A    between atoms: _252  and  _255
REMARK  107  A    between atoms: _255  and  _256
REMARK  108  A    between atoms: _262  and  _264
REMARK  109  A    between atoms: _264  and  _265
REMARK  110  A    between atoms: _264  and  _267
REMARK  111  A    between atoms: _267  and  _268
REMARK  112  A    between atoms: _274  and  _276
REMARK  113  A    between atoms: _276  and  _277
REMARK  114  A    between atoms: _276  and  _279
REMARK  115  A    between atoms: _279  and  _280
REMARK  116  A    between atoms: _283  and  _285
REMARK  117  A    between atoms: _285  and  _286
REMARK  118  A    between atoms: _285  and  _288
REMARK  119  A    between atoms: _288  and  _289
REMARK  120  A    between atoms: _291  and  _293
REMARK  121  A    between atoms: _293  and  _294
REMARK  122  A    between atoms: _293  and  _296
REMARK  123  A    between atoms: _296  and  _297
REMARK  124  A    between atoms: _307  and  _309
REMARK  125  A    between atoms: _309  and  _310
REMARK  126  A    between atoms: _312  and  _314
REMARK  127  A    between atoms: _314  and  _315
REMARK  128  A    between atoms: _314  and  _317
REMARK  129  A    between atoms: _317  and  _318
REMARK  130  A    between atoms: _321  and  _323
REMARK  131  A    between atoms: _323  and  _324
REMARK  132  A    between atoms: _323  and  _326
REMARK  133  A    between atoms: _326  and  _327
REMARK  134  A    between atoms: _330  and  _332
REMARK  135  A    between atoms: _332  and  _333
REMARK  136  A    between atoms: _332  and  _335
REMARK  137  A    between atoms: _335  and  _336
REMARK  138  A    between atoms: _339  and  _341
REMARK  139  A    between atoms: _341  and  _342
REMARK  140  A    between atoms: _345  and  _347
REMARK  141  A    between atoms: _347  and  _348
REMARK  142  A    between atoms: _347  and  _350
REMARK  143  A    between atoms: _350  and  _351
REMARK  144  A    between atoms: _356  and  _357
REMARK  145  A    between atoms: _359  and  _361
REMARK  146  A    between atoms: _361  and  _362
REMARK  147  A    between atoms: _361  and  _364
REMARK  148  A    between atoms: _364  and  _365
REMARK  149  A    between atoms: _365  and  _366
REMARK  150  A    between atoms: _369  and  _371
REMARK  151  A    between atoms: _371  and  _372
REMARK  152  A    between atoms: _371  and  _374
REMARK  153  A    between atoms: _374  and  _375
REMARK  154  A    between atoms: _378  and  _380
REMARK  155  A    between atoms: _380  and  _381
REMARK  156  A    between atoms: _384  and  _386
REMARK  157  A    between atoms: _386  and  _387
REMARK  158  A    between atoms: _386  and  _389
REMARK  159  A    between atoms: _389  and  _390
REMARK  160  A    between atoms: _390  and  _391
REMARK  161  A    between atoms: _391  and  _392
REMARK  162  A    between atoms: _401  and  _403
REMARK  163  A    between atoms: _403  and  _404
REMARK  164  A    between atoms: _403  and  _406
REMARK  165  A    between atoms: _406  and  _407
REMARK  166  A    between atoms: _410  and  _412
REMARK  167  A    between atoms: _412  and  _413
REMARK  168  A    between atoms: _412  and  _415
REMARK  169  A    between atoms: _415  and  _416
REMARK  170  A    between atoms: _426  and  _428
REMARK  171  A    between atoms: _428  and  _429
REMARK  172  A    between atoms: _428  and  _431
REMARK  173  A    between atoms: _431  and  _432
REMARK  174  A    between atoms: _437  and  _438
REMARK  175  A    between atoms: _440  and  _442
REMARK  176  A    between atoms: _442  and  _443
REMARK  177  A    between atoms: _442  and  _445
REMARK  178  A    between atoms: _445  and  _446
REMARK  179  A    between atoms: _451  and  _452
REMARK  180  A    between atoms: _454  and  _456
REMARK  181  A    between atoms: _456  and  _457
REMARK  182  A    between atoms: _456  and  _459
REMARK  183  A    between atoms: _459  and  _460
REMARK  184  A    between atoms: _460  and  _461
REMARK  185  A    between atoms: _461  and  _462
REMARK  186  A    between atoms: _462  and  _463
REMARK  187  A    between atoms: _467  and  _469
REMARK  188  A    between atoms: _469  and  _470
REMARK  189  A    between atoms: _469  and  _472
REMARK  190  A    between atoms: _472  and  _473
REMARK  191  A    between atoms: _476  and  _478
REMARK  192  A    between atoms: _478  and  _479
REMARK  193  A    between atoms: _478  and  _481
REMARK  194  A    between atoms: _484  and  _486
REMARK  195  A    between atoms: _486  and  _487
REMARK  196  A    between atoms: _486  and  _489
REMARK  197  A    between atoms: _489  and  _490
REMARK  198  A    between atoms: _493  and  _495
REMARK  199  A    between atoms: _495  and  _496
REMARK  200  A    between atoms: _495  and  _498
REMARK  201  A    between atoms: _498  and  _499
REMARK  202  A    between atoms: _501  and  _503
REMARK  203  A    between atoms: _503  and  _504
REMARK  204  A    between atoms: _506  and  _508
REMARK  205  A    between atoms: _508  and  _509
REMARK  206  A    between atoms: _508  and  _511
REMARK  207  A    between atoms: _511  and  _512
REMARK  208  A    between atoms: _515  and  _517
REMARK  209  A    between atoms: _517  and  _518
REMARK  210  A    between atoms: _517  and  _520
REMARK  211  A    between atoms: _520  and  _521
REMARK  212  A    between atoms: _524  and  _526
REMARK  213  A    between atoms: _526  and  _527
REMARK  214  A    between atoms: _526  and  _529
REMARK  215  A    between atoms: _529  and  _530
REMARK  216  A    between atoms: _535  and  _537
REMARK  217  A    between atoms: _537  and  _538
REMARK  218  A    between atoms: _537  and  _540
REMARK  219  A    between atoms: _540  and  _541
REMARK  220  A    between atoms: _544  and  _546
REMARK  221  A    between atoms: _546  and  _547
REMARK  222  A    between atoms: _546  and  _549
REMARK  223  A    between atoms: _549  and  _550
REMARK  224  A    between atoms: _550  and  _551
REMARK  225  A    between atoms: _551  and  _552
REMARK  226  A    between atoms: _561  and  _563
REMARK  227  A    between atoms: _563  and  _564
REMARK  228  A    between atoms: _563  and  _566
REMARK  229  A    between atoms: _566  and  _567
REMARK  230  A    between atoms: _570  and  _572
REMARK  231  A    between atoms: _572  and  _573
REMARK  232  A    between atoms: _572  and  _575
REMARK  233  A    between atoms: _575  and  _576
REMARK  234  A    between atoms: _579  and  _581
REMARK  235  A    between atoms: _581  and  _582
REMARK  236  A    between atoms: _584  and  _586
REMARK  237  A    between atoms: _586  and  _587
REMARK  238  A    between atoms: _586  and  _589
REMARK  239  A    between atoms: _589  and  _590
REMARK  240  A    between atoms: _590  and  _591
REMARK  241  A    between atoms: _591  and  _592
REMARK  242  A    between atoms: _601  and  _603
REMARK  243  A    between atoms: _603  and  _604
REMARK  244  A    between atoms: _603  and  _606
REMARK  245  A    between atoms: _606  and  _607
REMARK  246  A    between atoms: _613  and  _615
REMARK  247  A    between atoms: _615  and  _616
REMARK  248  A    between atoms: _619  and  _621
REMARK  249  A    between atoms: _621  and  _622
REMARK  250  A    between atoms: _621  and  _624
REMARK  251  A    between atoms: _624  and  _625
REMARK  252  A    between atoms: _628  and  _630
REMARK  253  A    between atoms: _630  and  _631
REMARK  254  A    between atoms: _630  and  _633
REMARK  255  A    between atoms: _633  and  _634
REMARK  256  A    between atoms: _636  and  _638
REMARK  257  A    between atoms: _638  and  _639
REMARK  258  A    between atoms: _638  and  _641
REMARK  259  A    between atoms: _641  and  _642
REMARK  260  A    between atoms: _642  and  _643
REMARK  261  A    between atoms: _648  and  _650
REMARK  262  A    between atoms: _650  and  _651
REMARK  263  A    between atoms: _650  and  _653
REMARK  264  A    between atoms: _653  and  _654
REMARK  265  A    between atoms: _656  and  _658
REMARK  266  A    between atoms: _658  and  _659
REMARK  267  A    between atoms: _658  and  _661
REMARK  268  A    between atoms: _661  and  _662
REMARK  269  A    between atoms: _665  and  _667
REMARK  270  A    between atoms: _667  and  _668
REMARK  271  A    between atoms: _667  and  _670
REMARK  272  A    between atoms: _670  and  _671
REMARK  273  A    between atoms: _674  and  _676
REMARK  274  A    between atoms: _676  and  _677
REMARK  275  A    between atoms: _676  and  _679
REMARK  276  A    between atoms: _682  and  _684
REMARK  277  A    between atoms: _684  and  _685
REMARK  278  A    between atoms: _684  and  _687
REMARK  279  A    between atoms: _687  and  _688
REMARK  280  A    between atoms: _688  and  _689
REMARK  281  A    between atoms: _691  and  _693
REMARK  282  A    between atoms: _693  and  _694
REMARK  283  A    between atoms: _696  and  _698
REMARK  284  A    between atoms: _698  and  _699
REMARK  285  A    between atoms: _702  and  _704
REMARK  286  A    between atoms: _704  and  _705
REMARK  287  A    between atoms: _704  and  _707
REMARK  288  A    between atoms: _710  and  _712
REMARK  289  A    between atoms: _712  and  _713
REMARK  290  A    between atoms: _712  and  _715
REMARK  291  A    between atoms: _715  and  _716
REMARK  292  A    between atoms: _716  and  _717
REMARK  293  A    between atoms: _719  and  _721
REMARK  294  A    between atoms: _721  and  _722
REMARK  295  A    between atoms: _721  and  _724
REMARK  296  A    between atoms: _724  and  _725
REMARK  297  A    between atoms: _725  and  _726
REMARK                            x       y       z     vdW  Elec       q    Type
REMARK                         _______ _______ _______ _____ _____    ______ ____
ROOT
ATOM      1  C   ILE A   2     -15.512  -2.270  37.138  0.00  0.00    +0.241 C 
ATOM      2  N   ALA A   3     -15.977  -2.920  38.195  0.00  0.00    -0.297 N 
ATOM      3  H   ALA A   3     -16.410  -2.378  38.970  0.00  0.00    +0.150 HD
ATOM      4  O   ILE A   2     -14.989  -2.828  36.188  0.00  0.00    -0.273 OA
ENDROOT
BRANCH   2   5
ATOM      5  CA  ALA A   3     -15.900  -4.370  38.304  0.00  0.00    +0.149 C 
ATOM      6  CB  ALA A   3     -16.215  -4.798  39.725  0.00  0.00    +0.031 C 
BRANCH   5   7
ATOM      7  C   ALA A   3     -16.921  -4.970  37.361  0.00  0.00    +0.241 C 
ATOM      8  O   ALA A   3     -17.938  -4.349  37.091  0.00  0.00    -0.273 OA
ATOM      9  N   ARG A   4     -16.648  -6.159  36.840  0.00  0.00    -0.298 N 
ATOM     10  H   ARG A   4     -15.738  -6.617  37.048  0.00  0.00    +0.150 HD
BRANCH   9  11
ATOM     11  CA  ARG A   4     -17.616  -6.829  35.976  0.00  0.00    +0.137 C 
BRANCH  11  12
ATOM     12  C   ARG A   4     -18.166  -8.007  36.783  0.00  0.00    +0.227 C 
ATOM     13  O   ARG A   4     -17.461  -8.560  37.632  0.00  0.00    -0.286 OA
ENDBRANCH  11  12
BRANCH  11  14
ATOM     14  CB  ARG A   4     -16.968  -7.345  34.690  0.00  0.00    +0.031 C 
BRANCH  14  15
ATOM     15  CG  ARG A   4     -16.309  -6.284  33.828  0.00  0.00    +0.045 C 
BRANCH  15  16
ATOM     16  CD  ARG A   4     -17.154  -5.028  33.660  0.00  0.00    +0.174 C 
BRANCH  16  17
ATOM     17  NE  ARG A   4     -16.609  -4.170  32.609  0.00  0.00    -0.265 N 
ATOM     18  HE  ARG A   4     -16.129  -3.294  32.899  0.00  0.00    +0.259 HD
ATOM     19  CZ  ARG A   4     -16.686  -4.434  31.303  0.00  0.00    +0.342 C 
ATOM     20  NH2 ARG A   4     -17.292  -5.528  30.853  0.00  0.00    -0.292 N 
ATOM     21 HH21 ARG A   4     -17.719  -6.199  31.523  0.00  0.00    +0.255 HD
ATOM     22 HH22 ARG A   4     -17.340  -5.713  29.831  0.00  0.00    +0.255 HD
ATOM     23  NH1 ARG A   4     -16.130  -3.607  30.436  0.00  0.00    -0.292 N 
ATOM     24 HH11 ARG A   4     -15.636  -2.756  30.772  0.00  0.00    +0.255 HD
ATOM     25 HH12 ARG A   4     -16.186  -3.807  29.417  0.00  0.00    +0.255 HD
ENDBRANCH  16  17
ENDBRANCH  15  16
ENDBRANCH  14  15
ENDBRANCH  11  14
ENDBRANCH   9  11
ENDBRANCH   5   7
ENDBRANCH   2   5
BRANCH   1  26
ATOM     26  CA  ILE A   2     -15.681  -0.768  37.153  0.00  0.00    +0.148 C 
BRANCH  26  28
ATOM     27  C   GLU A   1     -17.370   0.110  38.641  0.00  0.00    +0.238 C 
ATOM     28  N   ILE A   2     -16.102  -0.235  38.444  0.00  0.00    -0.297 N 
ATOM     29  H   ILE A   2     -15.409  -0.125  39.211  0.00  0.00    +0.150 HD
ATOM     30  O   GLU A   1     -18.225  -0.028  37.773  0.00  0.00    -0.274 OA
BRANCH  27  31
ATOM     31  CA  GLU A   1     -17.751   0.694  40.005  0.00  0.00    +0.145 C 
BRANCH  31  32
ATOM     32  N   GLU A   1     -17.188   0.014  41.158  0.00  0.00    -0.238 NA
ATOM     33  H   GLU A   1     -16.879   0.580  41.974  0.00  0.00    +0.142 HD
ENDBRANCH  31  32
BRANCH  31  34
ATOM     34  CB  GLU A   1     -17.378   2.175  40.051  0.00  0.00    +0.038 C 
BRANCH  34  35
ATOM     35  CG  GLU A   1     -17.741   2.934  38.782  0.00  0.00    +0.116 C 
BRANCH  35  36
ATOM     36  CD  GLU A   1     -18.952   3.823  38.940  0.00  0.00    +0.365 C 
ATOM     37  OE2 GLU A   1     -18.915   4.740  39.798  0.00  0.00    -0.246 OA
ATOM     38  OE1 GLU A   1     -19.937   3.605  38.197  0.00  0.00    -0.246 OA
ENDBRANCH  35  36
ENDBRANCH  34  35
ENDBRANCH  31  34
ENDBRANCH  27  31
ENDBRANCH  26  28
BRANCH  26  39
ATOM     39  CB  ILE A   2     -14.372  -0.099  36.657  0.00  0.00    +0.027 C 
ATOM     40  CG2 ILE A   2     -14.616   1.363  36.398  0.00  0.00    +0.002 C 
BRANCH  39  41
ATOM     41  CG1 ILE A   2     -13.265  -0.245  37.692  0.00  0.00    +0.002 C 
ATOM     42  CD1 ILE A   2     -12.028   0.526  37.330  0.00  0.00    +0.000 C 
ENDBRANCH  39  41
ENDBRANCH  26  39
ENDBRANCH   1  26
TORSDOF 17
REMARK  Name = ../refined-set-2016/2p4j/2p4j_pocket.pdb
REMARK  297 active torsions:
REMARK  status: ('A' for Active; 'I' for Inactive)
REMARK    1  A    between atoms: _1  and  _3
REMARK    2  A    between atoms: _3  and  _4
REMARK    3  A    between atoms: _6  and  _8
REMARK    4  A    between atoms: _8  and  _9
REMARK    5  A    between atoms: _8  and  _11
REMARK    6  A    between atoms: _11  and  _12
REMARK    7  A    between atoms: _12  and  _13
REMARK    8  A    between atoms: _13  and  _14
REMARK    9  A    between atoms: _14  and  _15
REMARK   10  A    between atoms: _19  and  _21
REMARK   11  A    between atoms: _21  and  _22
REMARK   12  A    between atoms: _21  and  _24
REMARK   13  A    between atoms: _24  and  _25
REMARK   14  A    between atoms: _27  and  _29
REMARK   15  A    between atoms: _29  and  _30
REMARK   16  A    between atoms: _32  and  _34
REMARK   17  A    between atoms: _34  and  _35
REMARK   18  A    between atoms: _34  and  _37
REMARK   19  A    between atoms: _37  and  _38
REMARK   20  A    between atoms: _38  and  _39
REMARK   21  A    between atoms: _44  and  _46
REMARK   22  A    between atoms: _46  and  _47
REMARK   23  A    between atoms: _49  and  _51
REMARK   24  A    between atoms: _51  and  _52
REMARK   25  A    between atoms: _51  and  _54
REMARK   26  A    between atoms: _54  and  _55
REMARK   27  A    between atoms: _60  and  _61
REMARK   28  A    between atoms: _63  and  _65
REMARK   29  A    between atoms: _65  and  _66
REMARK   30  A    between atoms: _65  and  _68
REMARK   31  A    between atoms: _68  and  _69
REMARK   32  A    between atoms: _72  and  _74
REMARK   33  A    between atoms: _74  and  _75
REMARK   34  A    between atoms: _74  and  _77
REMARK   35  A    between atoms: _80  and  _82
REMARK   36  A    between atoms: _82  and  _83
REMARK   37  A    between atoms: _82  and  _85
REMARK   38  A    between atoms: _85  and  _86
REMARK   39  A    between atoms: _89  and  _91
REMARK   40  A    between atoms: _91  and  _92
REMARK   41  A    between atoms: _91  and  _94
REMARK   42  A    between atoms: _94  and  _95
REMARK   43  A    between atoms: _98  and  _100
REMARK   44  A    between atoms: _100  and  _101
REMARK   45  A    between atoms: _103  and  _105
REMARK   46  A    between atoms: _105  and  _106
REMARK   47  A    between atoms: _105  and  _108
REMARK   48  A    between atoms: _108  and  _109
REMARK   49  A    between atoms: _111  and  _113
REMARK   50  A    between atoms: _113  and  _114
REMARK   51  A    between atoms: _113  and  _116
REMARK   52  A    between atoms: _116  and  _117
REMARK   53  A    between atoms: _119  and  _121
REMARK   54  A    between atoms: _121  and  _122
REMARK   55  A    between atoms: _121  and  _124
REMARK   56  A    between atoms: _124  and  _125
REMARK   57  A    between atoms: _130  and  _132
REMARK   58  A    between atoms: _132  and  _133
REMARK   59  A    between atoms: _132  and  _135
REMARK   60  A    between atoms: _135  and  _136
REMARK   61  A    between atoms: _141  and  _142
REMARK   62  A    between atoms: _144  and  _146
REMARK   63  A    between atoms: _146  and  _147
REMARK   64  A    between atoms: _146  and  _149
REMARK   65  A    between atoms: _153  and  _154
REMARK   66  A    between atoms: _159  and  _161
REMARK   67  A    between atoms: _161  and  _162
REMARK   68  A    between atoms: _161  and  _164
REMARK   69  A    between atoms: _164  and  _165
REMARK   70  A    between atoms: _170  and  _171
REMARK   71  A    between atoms: _173  and  _175
REMARK   72  A    between atoms: _175  and  _176
REMARK   73  A    between atoms: _175  and  _178
REMARK   74  A    between atoms: _178  and  _179
REMARK   75  A    between atoms: _182  and  _184
REMARK   76  A    between atoms: _184  and  _185
REMARK   77  A    between atoms: _184  and  _187
REMARK   78  A    between atoms: _187  and  _188
REMARK   79  A    between atoms: _188  and  _189
REMARK   80  A    between atoms: _194  and  _196
REMARK   81  A    between atoms: _196  and  _197
REMARK   82  A    between atoms: _199  and  _201
REMARK   83  A    between atoms: _201  and  _202
REMARK   84  A    between atoms: _201  and  _204
REMARK   85  A    between atoms: _204  and  _205
REMARK   86  A    between atoms: _205  and  _206
REMARK   87  A    between atoms: _206  and  _207
REMARK   88  A    between atoms: _207  and  _208
REMARK   89  A    between atoms: _212  and  _214
REMARK   90  A    between atoms: _214  and  _215
REMARK   91  A    between atoms: _214  and  _217
REMARK   92  A    between atoms: _217  and  _218
REMARK   93  A    between atoms: _228  and  _230
REMARK   94  A    between atoms: _230  and  _231
REMARK   95  A    between atoms: _230  and  _233
REMARK   96  A    between atoms: _233  and  _234
REMARK   97  A    between atoms: _237  and  _239
REMARK   98  A    between atoms: _239  and  _240
REMARK   99  A    between atoms: _239  and  _242
REMARK  100  A    between atoms: _242  and  _243
REMARK  101  A    between atoms: _243  and  _244
REMARK  102  A    between atoms: _244  and  _245
REMARK  103  A    between atoms: _245  and  _246
REMARK  104  A    between atoms: _250  and  _252
REMARK  105  A    between atoms: _252  and  _253
REMARK  106  A    between atoms: _252  and  _255
REMARK  107  A    between atoms: _255  and  _256
REMARK  108  A    between atoms: _262  and  _264
REMARK  109  A    between atoms: _264  and  _265
REMARK  110  A    between atoms: _264  and  _267
REMARK  111  A    between atoms: _267  and  _268
REMARK  112  A    between atoms: _274  and  _276
REMARK  113  A    between atoms: _276  and  _277
REMARK  114  A    between atoms: _276  and  _279
REMARK  115  A    between atoms: _279  and  _280
REMARK  116  A    between atoms: _283  and  _285
REMARK  117  A    between atoms: _285  and  _286
REMARK  118  A    between atoms: _285  and  _288
REMARK  119  A    between atoms: _288  and  _289
REMARK  120  A    between atoms: _291  and  _293
REMARK  121  A    between atoms: _293  and  _294
REMARK  122  A    between atoms: _293  and  _296
REMARK  123  A    between atoms: _296  and  _297
REMARK  124  A    between atoms: _307  and  _309
REMARK  125  A    between atoms: _309  and  _310
REMARK  126  A    between atoms: _312  and  _314
REMARK  127  A    between atoms: _314  and  _315
REMARK  128  A    between atoms: _314  and  _317
REMARK  129  A    between atoms: _317  and  _318
REMARK  130  A    between atoms: _321  and  _323
REMARK  131  A    between atoms: _323  and  _324
REMARK  132  A    between atoms: _323  and  _326
REMARK  133  A    between atoms: _326  and  _327
REMARK  134  A    between atoms: _330  and  _332
REMARK  135  A    between atoms: _332  and  _333
REMARK  136  A    between atoms: _332  and  _335
REMARK  137  A    between atoms: _335  and  _336
REMARK  138  A    between atoms: _339  and  _341
REMARK  139  A    between atoms: _341  and  _342
REMARK  140  A    between atoms: _345  and  _347
REMARK  141  A    between atoms: _347  and  _348
REMARK  142  A    between atoms: _347  and  _350
REMARK  143  A    between atoms: _350  and  _351
REMARK  144  A    between atoms: _356  and  _357
REMARK  145  A    between atoms: _359  and  _361
REMARK  146  A    between atoms: _361  and  _362
REMARK  147  A    between atoms: _361  and  _364
REMARK  148  A    between atoms: _364  and  _365
REMARK  149  A    between atoms: _365  and  _366
REMARK  150  A    between atoms: _369  and  _371
REMARK  151  A    between atoms: _371  and  _372
REMARK  152  A    between atoms: _371  and  _374
REMARK  153  A    between atoms: _374  and  _375
REMARK  154  A    between atoms: _378  and  _380
REMARK  155  A    between atoms: _380  and  _381
REMARK  156  A    between atoms: _384  and  _386
REMARK  157  A    between atoms: _386  and  _387
REMARK  158  A    between atoms: _386  and  _389
REMARK  159  A    between atoms: _389  and  _390
REMARK  160  A    between atoms: _390  and  _391
REMARK  161  A    between atoms: _391  and  _392
REMARK  162  A    between atoms: _401  and  _403
REMARK  163  A    between atoms: _403  and  _404
REMARK  164  A    between atoms: _403  and  _406
REMARK  165  A    between atoms: _406  and  _407
REMARK  166  A    between atoms: _410  and  _412
REMARK  167  A    between atoms: _412  and  _413
REMARK  168  A    between atoms: _412  and  _415
REMARK  169  A    between atoms: _415  and  _416
REMARK  170  A    between atoms: _426  and  _428
REMARK  171  A    between atoms: _428  and  _429
REMARK  172  A    between atoms: _428  and  _431
REMARK  173  A    between atoms: _431  and  _432
REMARK  174  A    between atoms: _437  and  _438
REMARK  175  A    between atoms: _440  and  _442
REMARK  176  A    between atoms: _442  and  _443
REMARK  177  A    between atoms: _442  and  _445
REMARK  178  A    between atoms: _445  and  _446
REMARK  179  A    between atoms: _451  and  _452
REMARK  180  A    between atoms: _454  and  _456
REMARK  181  A    between atoms: _456  and  _457
REMARK  182  A    between atoms: _456  and  _459
REMARK  183  A    between atoms: _459  and  _460
REMARK  184  A    between atoms: _460  and  _461
REMARK  185  A    between atoms: _461  and  _462
REMARK  186  A    between atoms: _462  and  _463
REMARK  187  A    between atoms: _467  and  _469
REMARK  188  A    between atoms: _469  and  _470
REMARK  189  A    between atoms: _469  and  _472
REMARK  190  A    between atoms: _472  and  _473
REMARK  191  A    between atoms: _476  and  _478
REMARK  192  A    between atoms: _478  and  _479
REMARK  193  A    between atoms: _478  and  _481
REMARK  194  A    between atoms: _484  and  _486
REMARK  195  A    between atoms: _486  and  _487
REMARK  196  A    between atoms: _486  and  _489
REMARK  197  A    between atoms: _489  and  _490
REMARK  198  A    between atoms: _493  and  _495
REMARK  199  A    between atoms: _495  and  _496
REMARK  200  A    between atoms: _495  and  _498
REMARK  201  A    between atoms: _498  and  _499
REMARK  202  A    between atoms: _501  and  _503
REMARK  203  A    between atoms: _503  and  _504
REMARK  204  A    between atoms: _506  and  _508
REMARK  205  A    between atoms: _508  and  _509
REMARK  206  A    between atoms: _508  and  _511
REMARK  207  A    between atoms: _511  and  _512
REMARK  208  A    between atoms: _515  and  _517
REMARK  209  A    between atoms: _517  and  _518
REMARK  210  A    between atoms: _517  and  _520
REMARK  211  A    between atoms: _520  and  _521
REMARK  212  A    between atoms: _524  and  _526
REMARK  213  A    between atoms: _526  and  _527
REMARK  214  A    between atoms: _526  and  _529
REMARK  215  A    between atoms: _529  and  _530
REMARK  216  A    between atoms: _535  and  _537
REMARK  217  A    between atoms: _537  and  _538
REMARK  218  A    between atoms: _537  and  _540
REMARK  219  A    between atoms: _540  and  _541
REMARK  220  A    between atoms: _544  and  _546
REMARK  221  A    between atoms: _546  and  _547
REMARK  222  A    between atoms: _546  and  _549
REMARK  223  A    between atoms: _549  and  _550
REMARK  224  A    between atoms: _550  and  _551
REMARK  225  A    between atoms: _551  and  _552
REMARK  226  A    between atoms: _561  and  _563
REMARK  227  A    between atoms: _563  and  _564
REMARK  228  A    between atoms: _563  and  _566
REMARK  229  A    between atoms: _566  and  _567
REMARK  230  A    between atoms: _570  and  _572
REMARK  231  A    between atoms: _572  and  _573
REMARK  232  A    between atoms: _572  and  _575
REMARK  233  A    between atoms: _575  and  _576
REMARK  234  A    between atoms: _579  and  _581
REMARK  235  A    between atoms: _581  and  _582
REMARK  236  A    between atoms: _584  and  _586
REMARK  237  A    between atoms: _586  and  _587
REMARK  238  A    between atoms: _586  and  _589
REMARK  239  A    between atoms: _589  and  _590
REMARK  240  A    between atoms: _590  and  _591
REMARK  241  A    between atoms: _591  and  _592
REMARK  242  A    between atoms: _601  and  _603
REMARK  243  A    between atoms: _603  and  _604
REMARK  244  A    between atoms: _603  and  _606
REMARK  245  A    between atoms: _606  and  _607
REMARK  246  A    between atoms: _613  and  _615
REMARK  247  A    between atoms: _615  and  _616
REMARK  248  A    between atoms: _619  and  _621
REMARK  249  A    between atoms: _621  and  _622
REMARK  250  A    between atoms: _621  and  _624
REMARK  251  A    between atoms: _624  and  _625
REMARK  252  A    between atoms: _628  and  _630
REMARK  253  A    between atoms: _630  and  _631
REMARK  254  A    between atoms: _630  and  _633
REMARK  255  A    between atoms: _633  and  _634
REMARK  256  A    between atoms: _636  and  _638
REMARK  257  A    between atoms: _638  and  _639
REMARK  258  A    between atoms: _638  and  _641
REMARK  259  A    between atoms: _641  and  _642
REMARK  260  A    between atoms: _642  and  _643
REMARK  261  A    between atoms: _648  and  _650
REMARK  262  A    between atoms: _650  and  _651
REMARK  263  A    between atoms: _650  and  _653
REMARK  264  A    between atoms: _653  and  _654
REMARK  265  A    between atoms: _656  and  _658
REMARK  266  A    between atoms: _658  and  _659
REMARK  267  A    between atoms: _658  and  _661
REMARK  268  A    between atoms: _661  and  _662
REMARK  269  A    between atoms: _665  and  _667
REMARK  270  A    between atoms: _667  and  _668
REMARK  271  A    between atoms: _667  and  _670
REMARK  272  A    between atoms: _670  and  _671
REMARK  273  A    between atoms: _674  and  _676
REMARK  274  A    between atoms: _676  and  _677
REMARK  275  A    between atoms: _676  and  _679
REMARK  276  A    between atoms: _682  and  _684
REMARK  277  A    between atoms: _684  and  _685
REMARK  278  A    between atoms: _684  and  _687
REMARK  279  A    between atoms: _687  and  _688
REMARK  280  A    between atoms: _688  and  _689
REMARK  281  A    between atoms: _691  and  _693
REMARK  282  A    between atoms: _693  and  _694
REMARK  283  A    between atoms: _696  and  _698
REMARK  284  A    between atoms: _698  and  _699
REMARK  285  A    between atoms: _702  and  _704
REMARK  286  A    between atoms: _704  and  _705
REMARK  287  A    between atoms: _704  and  _707
REMARK  288  A    between atoms: _710  and  _712
REMARK  289  A    between atoms: _712  and  _713
REMARK  290  A    between atoms: _712  and  _715
REMARK  291  A    between atoms: _715  and  _716
REMARK  292  A    between atoms: _716  and  _717
REMARK  293  A    between atoms: _719  and  _721
REMARK  294  A    between atoms: _721  and  _722
REMARK  295  A    between atoms: _721  and  _724
REMARK  296  A    between atoms: _724  and  _725
REMARK  297  A    between atoms: _725  and  _726
REMARK                            x       y       z     vdW  Elec       q    Type
REMARK                         _______ _______ _______ _____ _____    ______ ____
ROOT
ATOM      1  CA  LEU A   1       7.519  -1.395  42.086  0.00  0.00    +0.133 C 
ENDROOT
BRANCH   1   2
ATOM      2  N   LEU A   1       7.188  -0.471  43.169  0.00  0.00    -0.239 NA
ATOM      3  H   LEU A   1       6.968   0.521  42.945  0.00  0.00    +0.142 HD
ENDBRANCH   1   2
BRANCH   1   4
ATOM      4  C   LEU A   1       8.967  -1.113  41.677  0.00  0.00    +0.224 C 
ATOM      5  O   LEU A   1       9.304   0.011  41.291  0.00  0.00    -0.287 OA
ENDBRANCH   1   4
BRANCH   1   6
ATOM      6  CB  LEU A   1       6.571  -1.195  40.903  0.00  0.00    +0.025 C 
BRANCH   6   7
ATOM      7  CG  LEU A   1       5.079  -1.327  41.233  0.00  0.00    +0.002 C 
ATOM      8  CD2 LEU A   1       4.817  -2.679  41.877  0.00  0.00    +0.000 C 
ATOM      9  CD1 LEU A   1       4.243  -1.161  39.974  0.00  0.00    +0.000 C 
ENDBRANCH   6   7
ENDBRANCH   1   6
TORSDOF 4
REMARK  Name = ../refined-set-2016/2p4j/2p4j_pocket.pdb
REMARK  297 active torsions:
REMARK  status: ('A' for Active; 'I' for Inactive)
REMARK    1  A    between atoms: _1  and  _3
REMARK    2  A    between atoms: _3  and  _4
REMARK    3  A    between atoms: _6  and  _8
REMARK    4  A    between atoms: _8  and  _9
REMARK    5  A    between atoms: _8  and  _11
REMARK    6  A    between atoms: _11  and  _12
REMARK    7  A    between atoms: _12  and  _13
REMARK    8  A    between atoms: _13  and  _14
REMARK    9  A    between atoms: _14  and  _15
REMARK   10  A    between atoms: _19  and  _21
REMARK   11  A    between atoms: _21  and  _22
REMARK   12  A    between atoms: _21  and  _24
REMARK   13  A    between atoms: _24  and  _25
REMARK   14  A    between atoms: _27  and  _29
REMARK   15  A    between atoms: _29  and  _30
REMARK   16  A    between atoms: _32  and  _34
REMARK   17  A    between atoms: _34  and  _35
REMARK   18  A    between atoms: _34  and  _37
REMARK   19  A    between atoms: _37  and  _38
REMARK   20  A    between atoms: _38  and  _39
REMARK   21  A    between atoms: _44  and  _46
REMARK   22  A    between atoms: _46  and  _47
REMARK   23  A    between atoms: _49  and  _51
REMARK   24  A    between atoms: _51  and  _52
REMARK   25  A    between atoms: _51  and  _54
REMARK   26  A    between atoms: _54  and  _55
REMARK   27  A    between atoms: _60  and  _61
REMARK   28  A    between atoms: _63  and  _65
REMARK   29  A    between atoms: _65  and  _66
REMARK   30  A    between atoms: _65  and  _68
REMARK   31  A    between atoms: _68  and  _69
REMARK   32  A    between atoms: _72  and  _74
REMARK   33  A    between atoms: _74  and  _75
REMARK   34  A    between atoms: _74  and  _77
REMARK   35  A    between atoms: _80  and  _82
REMARK   36  A    between atoms: _82  and  _83
REMARK   37  A    between atoms: _82  and  _85
REMARK   38  A    between atoms: _85  and  _86
REMARK   39  A    between atoms: _89  and  _91
REMARK   40  A    between atoms: _91  and  _92
REMARK   41  A    between atoms: _91  and  _94
REMARK   42  A    between atoms: _94  and  _95
REMARK   43  A    between atoms: _98  and  _100
REMARK   44  A    between atoms: _100  and  _101
REMARK   45  A    between atoms: _103  and  _105
REMARK   46  A    between atoms: _105  and  _106
REMARK   47  A    between atoms: _105  and  _108
REMARK   48  A    between atoms: _108  and  _109
REMARK   49  A    between atoms: _111  and  _113
REMARK   50  A    between atoms: _113  and  _114
REMARK   51  A    between atoms: _113  and  _116
REMARK   52  A    between atoms: _116  and  _117
REMARK   53  A    between atoms: _119  and  _121
REMARK   54  A    between atoms: _121  and  _122
REMARK   55  A    between atoms: _121  and  _124
REMARK   56  A    between atoms: _124  and  _125
REMARK   57  A    between atoms: _130  and  _132
REMARK   58  A    between atoms: _132  and  _133
REMARK   59  A    between atoms: _132  and  _135
REMARK   60  A    between atoms: _135  and  _136
REMARK   61  A    between atoms: _141  and  _142
REMARK   62  A    between atoms: _144  and  _146
REMARK   63  A    between atoms: _146  and  _147
REMARK   64  A    between atoms: _146  and  _149
REMARK   65  A    between atoms: _153  and  _154
REMARK   66  A    between atoms: _159  and  _161
REMARK   67  A    between atoms: _161  and  _162
REMARK   68  A    between atoms: _161  and  _164
REMARK   69  A    between atoms: _164  and  _165
REMARK   70  A    between atoms: _170  and  _171
REMARK   71  A    between atoms: _173  and  _175
REMARK   72  A    between atoms: _175  and  _176
REMARK   73  A    between atoms: _175  and  _178
REMARK   74  A    between atoms: _178  and  _179
REMARK   75  A    between atoms: _182  and  _184
REMARK   76  A    between atoms: _184  and  _185
REMARK   77  A    between atoms: _184  and  _187
REMARK   78  A    between atoms: _187  and  _188
REMARK   79  A    between atoms: _188  and  _189
REMARK   80  A    between atoms: _194  and  _196
REMARK   81  A    between atoms: _196  and  _197
REMARK   82  A    between atoms: _199  and  _201
REMARK   83  A    between atoms: _201  and  _202
REMARK   84  A    between atoms: _201  and  _204
REMARK   85  A    between atoms: _204  and  _205
REMARK   86  A    between atoms: _205  and  _206
REMARK   87  A    between atoms: _206  and  _207
REMARK   88  A    between atoms: _207  and  _208
REMARK   89  A    between atoms: _212  and  _214
REMARK   90  A    between atoms: _214  and  _215
REMARK   91  A    between atoms: _214  and  _217
REMARK   92  A    between atoms: _217  and  _218
REMARK   93  A    between atoms: _228  and  _230
REMARK   94  A    between atoms: _230  and  _231
REMARK   95  A    between atoms: _230  and  _233
REMARK   96  A    between atoms: _233  and  _234
REMARK   97  A    between atoms: _237  and  _239
REMARK   98  A    between atoms: _239  and  _240
REMARK   99  A    between atoms: _239  and  _242
REMARK  100  A    between atoms: _242  and  _243
REMARK  101  A    between atoms: _243  and  _244
REMARK  102  A    between atoms: _244  and  _245
REMARK  103  A    between atoms: _245  and  _246
REMARK  104  A    between atoms: _250  and  _252
REMARK  105  A    between atoms: _252  and  _253
REMARK  106  A    between atoms: _252  and  _255
REMARK  107  A    between atoms: _255  and  _256
REMARK  108  A    between atoms: _262  and  _264
REMARK  109  A    between atoms: _264  and  _265
REMARK  110  A    between atoms: _264  and  _267
REMARK  111  A    between atoms: _267  and  _268
REMARK  112  A    between atoms: _274  and  _276
REMARK  113  A    between atoms: _276  and  _277
REMARK  114  A    between atoms: _276  and  _279
REMARK  115  A    between atoms: _279  and  _280
REMARK  116  A    between atoms: _283  and  _285
REMARK  117  A    between atoms: _285  and  _286
REMARK  118  A    between atoms: _285  and  _288
REMARK  119  A    between atoms: _288  and  _289
REMARK  120  A    between atoms: _291  and  _293
REMARK  121  A    between atoms: _293  and  _294
REMARK  122  A    between atoms: _293  and  _296
REMARK  123  A    between atoms: _296  and  _297
REMARK  124  A    between atoms: _307  and  _309
REMARK  125  A    between atoms: _309  and  _310
REMARK  126  A    between atoms: _312  and  _314
REMARK  127  A    between atoms: _314  and  _315
REMARK  128  A    between atoms: _314  and  _317
REMARK  129  A    between atoms: _317  and  _318
REMARK  130  A    between atoms: _321  and  _323
REMARK  131  A    between atoms: _323  and  _324
REMARK  132  A    between atoms: _323  and  _326
REMARK  133  A    between atoms: _326  and  _327
REMARK  134  A    between atoms: _330  and  _332
REMARK  135  A    between atoms: _332  and  _333
REMARK  136  A    between atoms: _332  and  _335
REMARK  137  A    between atoms: _335  and  _336
REMARK  138  A    between atoms: _339  and  _341
REMARK  139  A    between atoms: _341  and  _342
REMARK  140  A    between atoms: _345  and  _347
REMARK  141  A    between atoms: _347  and  _348
REMARK  142  A    between atoms: _347  and  _350
REMARK  143  A    between atoms: _350  and  _351
REMARK  144  A    between atoms: _356  and  _357
REMARK  145  A    between atoms: _359  and  _361
REMARK  146  A    between atoms: _361  and  _362
REMARK  147  A    between atoms: _361  and  _364
REMARK  148  A    between atoms: _364  and  _365
REMARK  149  A    between atoms: _365  and  _366
REMARK  150  A    between atoms: _369  and  _371
REMARK  151  A    between atoms: _371  and  _372
REMARK  152  A    between atoms: _371  and  _374
REMARK  153  A    between atoms: _374  and  _375
REMARK  154  A    between atoms: _378  and  _380
REMARK  155  A    between atoms: _380  and  _381
REMARK  156  A    between atoms: _384  and  _386
REMARK  157  A    between atoms: _386  and  _387
REMARK  158  A    between atoms: _386  and  _389
REMARK  159  A    between atoms: _389  and  _390
REMARK  160  A    between atoms: _390  and  _391
REMARK  161  A    between atoms: _391  and  _392
REMARK  162  A    between atoms: _401  and  _403
REMARK  163  A    between atoms: _403  and  _404
REMARK  164  A    between atoms: _403  and  _406
REMARK  165  A    between atoms: _406  and  _407
REMARK  166  A    between atoms: _410  and  _412
REMARK  167  A    between atoms: _412  and  _413
REMARK  168  A    between atoms: _412  and  _415
REMARK  169  A    between atoms: _415  and  _416
REMARK  170  A    between atoms: _426  and  _428
REMARK  171  A    between atoms: _428  and  _429
REMARK  172  A    between atoms: _428  and  _431
REMARK  173  A    between atoms: _431  and  _432
REMARK  174  A    between atoms: _437  and  _438
REMARK  175  A    between atoms: _440  and  _442
REMARK  176  A    between atoms: _442  and  _443
REMARK  177  A    between atoms: _442  and  _445
REMARK  178  A    between atoms: _445  and  _446
REMARK  179  A    between atoms: _451  and  _452
REMARK  180  A    between atoms: _454  and  _456
REMARK  181  A    between atoms: _456  and  _457
REMARK  182  A    between atoms: _456  and  _459
REMARK  183  A    between atoms: _459  and  _460
REMARK  184  A    between atoms: _460  and  _461
REMARK  185  A    between atoms: _461  and  _462
REMARK  186  A    between atoms: _462  and  _463
REMARK  187  A    between atoms: _467  and  _469
REMARK  188  A    between atoms: _469  and  _470
REMARK  189  A    between atoms: _469  and  _472
REMARK  190  A    between atoms: _472  and  _473
REMARK  191  A    between atoms: _476  and  _478
REMARK  192  A    between atoms: _478  and  _479
REMARK  193  A    between atoms: _478  and  _481
REMARK  194  A    between atoms: _484  and  _486
REMARK  195  A    between atoms: _486  and  _487
REMARK  196  A    between atoms: _486  and  _489
REMARK  197  A    between atoms: _489  and  _490
REMARK  198  A    between atoms: _493  and  _495
REMARK  199  A    between atoms: _495  and  _496
REMARK  200  A    between atoms: _495  and  _498
REMARK  201  A    between atoms: _498  and  _499
REMARK  202  A    between atoms: _501  and  _503
REMARK  203  A    between atoms: _503  and  _504
REMARK  204  A    between atoms: _506  and  _508
REMARK  205  A    between atoms: _508  and  _509
REMARK  206  A    between atoms: _508  and  _511
REMARK  207  A    between atoms: _511  and  _512
REMARK  208  A    between atoms: _515  and  _517
REMARK  209  A    between atoms: _517  and  _518
REMARK  210  A    between atoms: _517  and  _520
REMARK  211  A    between atoms: _520  and  _521
REMARK  212  A    between atoms: _524  and  _526
REMARK  213  A    between atoms: _526  and  _527
REMARK  214  A    between atoms: _526  and  _529
REMARK  215  A    between atoms: _529  and  _530
REMARK  216  A    between atoms: _535  and  _537
REMARK  217  A    between atoms: _537  and  _538
REMARK  218  A    between atoms: _537  and  _540
REMARK  219  A    between atoms: _540  and  _541
REMARK  220  A    between atoms: _544  and  _546
REMARK  221  A    between atoms: _546  and  _547
REMARK  222  A    between atoms: _546  and  _549
REMARK  223  A    between atoms: _549  and  _550
REMARK  224  A    between atoms: _550  and  _551
REMARK  225  A    between atoms: _551  and  _552
REMARK  226  A    between atoms: _561  and  _563
REMARK  227  A    between atoms: _563  and  _564
REMARK  228  A    between atoms: _563  and  _566
REMARK  229  A    between atoms: _566  and  _567
REMARK  230  A    between atoms: _570  and  _572
REMARK  231  A    between atoms: _572  and  _573
REMARK  232  A    between atoms: _572  and  _575
REMARK  233  A    between atoms: _575  and  _576
REMARK  234  A    between atoms: _579  and  _581
REMARK  235  A    between atoms: _581  and  _582
REMARK  236  A    between atoms: _584  and  _586
REMARK  237  A    between atoms: _586  and  _587
REMARK  238  A    between atoms: _586  and  _589
REMARK  239  A    between atoms: _589  and  _590
REMARK  240  A    between atoms: _590  and  _591
REMARK  241  A    between atoms: _591  and  _592
REMARK  242  A    between atoms: _601  and  _603
REMARK  243  A    between atoms: _603  and  _604
REMARK  244  A    between atoms: _603  and  _606
REMARK  245  A    between atoms: _606  and  _607
REMARK  246  A    between atoms: _613  and  _615
REMARK  247  A    between atoms: _615  and  _616
REMARK  248  A    between atoms: _619  and  _621
REMARK  249  A    between atoms: _621  and  _622
REMARK  250  A    between atoms: _621  and  _624
REMARK  251  A    between atoms: _624  and  _625
REMARK  252  A    between atoms: _628  and  _630
REMARK  253  A    between atoms: _630  and  _631
REMARK  254  A    between atoms: _630  and  _633
REMARK  255  A    between atoms: _633  and  _634
REMARK  256  A    between atoms: _636  and  _638
REMARK  257  A    between atoms: _638  and  _639
REMARK  258  A    between atoms: _638  and  _641
REMARK  259  A    between atoms: _641  and  _642
REMARK  260  A    between atoms: _642  and  _643
REMARK  261  A    between atoms: _648  and  _650
REMARK  262  A    between atoms: _650  and  _651
REMARK  263  A    between atoms: _650  and  _653
REMARK  264  A    between atoms: _653  and  _654
REMARK  265  A    between atoms: _656  and  _658
REMARK  266  A    between atoms: _658  and  _659
REMARK  267  A    between atoms: _658  and  _661
REMARK  268  A    between atoms: _661  and  _662
REMARK  269  A    between atoms: _665  and  _667
REMARK  270  A    between atoms: _667  and  _668
REMARK  271  A    between atoms: _667  and  _670
REMARK  272  A    between atoms: _670  and  _671
REMARK  273  A    between atoms: _674  and  _676
REMARK  274  A    between atoms: _676  and  _677
REMARK  275  A    between atoms: _676  and  _679
REMARK  276  A    between atoms: _682  and  _684
REMARK  277  A    between atoms: _684  and  _685
REMARK  278  A    between atoms: _684  and  _687
REMARK  279  A    between atoms: _687  and  _688
REMARK  280  A    between atoms: _688  and  _689
REMARK  281  A    between atoms: _691  and  _693
REMARK  282  A    between atoms: _693  and  _694
REMARK  283  A    between atoms: _696  and  _698
REMARK  284  A    between atoms: _698  and  _699
REMARK  285  A    between atoms: _702  and  _704
REMARK  286  A    between atoms: _704  and  _705
REMARK  287  A    between atoms: _704  and  _707
REMARK  288  A    between atoms: _710  and  _712
REMARK  289  A    between atoms: _712  and  _713
REMARK  290  A    between atoms: _712  and  _715
REMARK  291  A    between atoms: _715  and  _716
REMARK  292  A    between atoms: _716  and  _717
REMARK  293  A    between atoms: _719  and  _721
REMARK  294  A    between atoms: _721  and  _722
REMARK  295  A    between atoms: _721  and  _724
REMARK  296  A    between atoms: _724  and  _725
REMARK  297  A    between atoms: _725  and  _726
REMARK                            x       y       z     vdW  Elec       q    Type
REMARK                         _______ _______ _______ _____ _____    ______ ____
ROOT
ATOM      1  CA  TYR A   2     -10.401   3.748  38.419  0.00  0.00    +0.153 C 
ENDROOT
BRANCH   1   4
ATOM      2  C   TRP A   1     -12.540   3.431  39.519  0.00  0.00    +0.239 C 
ATOM      3  O   TRP A   1     -12.161   2.367  40.003  0.00  0.00    -0.274 OA
ATOM      4  N   TYR A   2     -11.778   4.146  38.700  0.00  0.00    -0.297 N 
ATOM      5  H   TYR A   2     -12.167   5.001  38.253  0.00  0.00    +0.150 HD
BRANCH   2   6
ATOM      6  CA  TRP A   1     -13.921   3.981  39.876  0.00  0.00    +0.149 C 
BRANCH   6   7
ATOM      7  N   TRP A   1     -13.616   5.065  40.797  0.00  0.00    -0.238 NA
ATOM      8  H   TRP A   1     -12.914   5.783  40.527  0.00  0.00    +0.142 HD
ENDBRANCH   6   7
BRANCH   6   9
ATOM      9  CB  TRP A   1     -14.744   4.467  38.675  0.00  0.00    +0.054 C 
BRANCH   9  10
ATOM     10  CG  TRP A   1     -14.196   5.562  37.854  0.00  0.00    -0.002 A 
ATOM     11  CD1 TRP A   1     -13.480   6.646  38.280  0.00  0.00    +0.068 A 
ATOM     12  NE1 TRP A   1     -13.215   7.485  37.216  0.00  0.00    -0.352 N 
ATOM     13  HE1 TRP A   1     -12.687   8.379  37.267  0.00  0.00    +0.166 HD
ATOM     14  CE2 TRP A   1     -13.763   6.945  36.081  0.00  0.00    +0.056 A 
ATOM     15  CZ2 TRP A   1     -13.761   7.419  34.759  0.00  0.00    +0.017 A 
ATOM     16  CH2 TRP A   1     -14.392   6.652  33.814  0.00  0.00    +0.001 A 
ATOM     17  CZ3 TRP A   1     -15.022   5.438  34.157  0.00  0.00    +0.000 A 
ATOM     18  CE3 TRP A   1     -15.027   4.973  35.462  0.00  0.00    +0.001 A 
ATOM     19  CD2 TRP A   1     -14.387   5.731  36.448  0.00  0.00    +0.013 A 
ENDBRANCH   9  10
ENDBRANCH   6   9
ENDBRANCH   2   6
ENDBRANCH   1   4
BRANCH   1  20
ATOM     20  C   TYR A   2      -9.738   4.594  39.492  0.00  0.00    +0.241 C 
ATOM     21  O   TYR A   2     -10.431   5.332  40.193  0.00  0.00    -0.273 OA
ATOM     22  N   TYR A   3      -8.429   4.498  39.666  0.00  0.00    -0.298 N 
ATOM     23  H   TYR A   3      -7.868   3.797  39.140  0.00  0.00    +0.150 HD
BRANCH  22  24
ATOM     24  CA  TYR A   3      -7.797   5.405  40.618  0.00  0.00    +0.141 C 
BRANCH  24  25
ATOM     25  C   TYR A   3      -7.505   6.657  39.796  0.00  0.00    +0.227 C 
ATOM     26  O   TYR A   3      -6.371   6.914  39.388  0.00  0.00    -0.286 OA
ENDBRANCH  24  25
BRANCH  24  27
ATOM     27  CB  TYR A   3      -6.521   4.809  41.179  0.00  0.00    +0.054 C 
BRANCH  27  28
ATOM     28  CG  TYR A   3      -6.824   3.854  42.287  0.00  0.00    -0.020 A 
ATOM     29  CD2 TYR A   3      -7.207   4.330  43.548  0.00  0.00    -0.001 A 
ATOM     30  CE2 TYR A   3      -7.533   3.461  44.571  0.00  0.00    +0.036 A 
ATOM     31  CZ  TYR A   3      -7.469   2.086  44.349  0.00  0.00    +0.134 A 
ATOM     32  CE1 TYR A   3      -7.094   1.586  43.099  0.00  0.00    +0.036 A 
ATOM     33  CD1 TYR A   3      -6.777   2.473  42.077  0.00  0.00    -0.001 A 
BRANCH  31  34
ATOM     34  OH  TYR A   3      -7.731   1.217  45.383  0.00  0.00    -0.506 OA
ATOM     35  HH  TYR A   3      -7.643   0.285  45.060  0.00  0.00    +0.292 HD
ENDBRANCH  31  34
ENDBRANCH  27  28
ENDBRANCH  24  27
ENDBRANCH  22  24
ENDBRANCH   1  20
BRANCH   1  36
ATOM     36  CB  TYR A   2      -9.942   4.272  37.059  0.00  0.00    +0.055 C 
BRANCH  36  37
ATOM     37  CG  TYR A   2     -10.453   3.507  35.870  0.00  0.00    -0.020 A 
ATOM     38  CD2 TYR A   2      -9.811   2.354  35.444  0.00  0.00    -0.001 A 
ATOM     39  CE2 TYR A   2     -10.310   1.610  34.380  0.00  0.00    +0.036 A 
ATOM     40  CZ  TYR A   2     -11.462   2.024  33.732  0.00  0.00    +0.134 A 
ATOM     41  CE1 TYR A   2     -12.118   3.177  34.130  0.00  0.00    +0.036 A 
ATOM     42  CD1 TYR A   2     -11.611   3.910  35.196  0.00  0.00    -0.001 A 
BRANCH  40  43
ATOM     43  OH  TYR A   2     -11.965   1.256  32.717  0.00  0.00    -0.506 OA
ATOM     44  HH  TYR A   2     -11.372   0.478  32.568  0.00  0.00    +0.292 HD
ENDBRANCH  40  43
ENDBRANCH  36  37
ENDBRANCH   1  36
TORSDOF 14
REMARK  Name = ../refined-set-2016/2p4j/2p4j_pocket.pdb
REMARK  297 active torsions:
REMARK  status: ('A' for Active; 'I' for Inactive)
REMARK    1  A    between atoms: _1  and  _3
REMARK    2  A    between atoms: _3  and  _4
REMARK    3  A    between atoms: _6  and  _8
REMARK    4  A    between atoms: _8  and  _9
REMARK    5  A    between atoms: _8  and  _11
REMARK    6  A    between atoms: _11  and  _12
REMARK    7  A    between atoms: _12  and  _13
REMARK    8  A    between atoms: _13  and  _14
REMARK    9  A    between atoms: _14  and  _15
REMARK   10  A    between atoms: _19  and  _21
REMARK   11  A    between atoms: _21  and  _22
REMARK   12  A    between atoms: _21  and  _24
REMARK   13  A    between atoms: _24  and  _25
REMARK   14  A    between atoms: _27  and  _29
REMARK   15  A    between atoms: _29  and  _30
REMARK   16  A    between atoms: _32  and  _34
REMARK   17  A    between atoms: _34  and  _35
REMARK   18  A    between atoms: _34  and  _37
REMARK   19  A    between atoms: _37  and  _38
REMARK   20  A    between atoms: _38  and  _39
REMARK   21  A    between atoms: _44  and  _46
REMARK   22  A    between atoms: _46  and  _47
REMARK   23  A    between atoms: _49  and  _51
REMARK   24  A    between atoms: _51  and  _52
REMARK   25  A    between atoms: _51  and  _54
REMARK   26  A    between atoms: _54  and  _55
REMARK   27  A    between atoms: _60  and  _61
REMARK   28  A    between atoms: _63  and  _65
REMARK   29  A    between atoms: _65  and  _66
REMARK   30  A    between atoms: _65  and  _68
REMARK   31  A    between atoms: _68  and  _69
REMARK   32  A    between atoms: _72  and  _74
REMARK   33  A    between atoms: _74  and  _75
REMARK   34  A    between atoms: _74  and  _77
REMARK   35  A    between atoms: _80  and  _82
REMARK   36  A    between atoms: _82  and  _83
REMARK   37  A    between atoms: _82  and  _85
REMARK   38  A    between atoms: _85  and  _86
REMARK   39  A    between atoms: _89  and  _91
REMARK   40  A    between atoms: _91  and  _92
REMARK   41  A    between atoms: _91  and  _94
REMARK   42  A    between atoms: _94  and  _95
REMARK   43  A    between atoms: _98  and  _100
REMARK   44  A    between atoms: _100  and  _101
REMARK   45  A    between atoms: _103  and  _105
REMARK   46  A    between atoms: _105  and  _106
REMARK   47  A    between atoms: _105  and  _108
REMARK   48  A    between atoms: _108  and  _109
REMARK   49  A    between atoms: _111  and  _113
REMARK   50  A    between atoms: _113  and  _114
REMARK   51  A    between atoms: _113  and  _116
REMARK   52  A    between atoms: _116  and  _117
REMARK   53  A    between atoms: _119  and  _121
REMARK   54  A    between atoms: _121  and  _122
REMARK   55  A    between atoms: _121  and  _124
REMARK   56  A    between atoms: _124  and  _125
REMARK   57  A    between atoms: _130  and  _132
REMARK   58  A    between atoms: _132  and  _133
REMARK   59  A    between atoms: _132  and  _135
REMARK   60  A    between atoms: _135  and  _136
REMARK   61  A    between atoms: _141  and  _142
REMARK   62  A    between atoms: _144  and  _146
REMARK   63  A    between atoms: _146  and  _147
REMARK   64  A    between atoms: _146  and  _149
REMARK   65  A    between atoms: _153  and  _154
REMARK   66  A    between atoms: _159  and  _161
REMARK   67  A    between atoms: _161  and  _162
REMARK   68  A    between atoms: _161  and  _164
REMARK   69  A    between atoms: _164  and  _165
REMARK   70  A    between atoms: _170  and  _171
REMARK   71  A    between atoms: _173  and  _175
REMARK   72  A    between atoms: _175  and  _176
REMARK   73  A    between atoms: _175  and  _178
REMARK   74  A    between atoms: _178  and  _179
REMARK   75  A    between atoms: _182  and  _184
REMARK   76  A    between atoms: _184  and  _185
REMARK   77  A    between atoms: _184  and  _187
REMARK   78  A    between atoms: _187  and  _188
REMARK   79  A    between atoms: _188  and  _189
REMARK   80  A    between atoms: _194  and  _196
REMARK   81  A    between atoms: _196  and  _197
REMARK   82  A    between atoms: _199  and  _201
REMARK   83  A    between atoms: _201  and  _202
REMARK   84  A    between atoms: _201  and  _204
REMARK   85  A    between atoms: _204  and  _205
REMARK   86  A    between atoms: _205  and  _206
REMARK   87  A    between atoms: _206  and  _207
REMARK   88  A    between atoms: _207  and  _208
REMARK   89  A    between atoms: _212  and  _214
REMARK   90  A    between atoms: _214  and  _215
REMARK   91  A    between atoms: _214  and  _217
REMARK   92  A    between atoms: _217  and  _218
REMARK   93  A    between atoms: _228  and  _230
REMARK   94  A    between atoms: _230  and  _231
REMARK   95  A    between atoms: _230  and  _233
REMARK   96  A    between atoms: _233  and  _234
REMARK   97  A    between atoms: _237  and  _239
REMARK   98  A    between atoms: _239  and  _240
REMARK   99  A    between atoms: _239  and  _242
REMARK  100  A    between atoms: _242  and  _243
REMARK  101  A    between atoms: _243  and  _244
REMARK  102  A    between atoms: _244  and  _245
REMARK  103  A    between atoms: _245  and  _246
REMARK  104  A    between atoms: _250  and  _252
REMARK  105  A    between atoms: _252  and  _253
REMARK  106  A    between atoms: _252  and  _255
REMARK  107  A    between atoms: _255  and  _256
REMARK  108  A    between atoms: _262  and  _264
REMARK  109  A    between atoms: _264  and  _265
REMARK  110  A    between atoms: _264  and  _267
REMARK  111  A    between atoms: _267  and  _268
REMARK  112  A    between atoms: _274  and  _276
REMARK  113  A    between atoms: _276  and  _277
REMARK  114  A    between atoms: _276  and  _279
REMARK  115  A    between atoms: _279  and  _280
REMARK  116  A    between atoms: _283  and  _285
REMARK  117  A    between atoms: _285  and  _286
REMARK  118  A    between atoms: _285  and  _288
REMARK  119  A    between atoms: _288  and  _289
REMARK  120  A    between atoms: _291  and  _293
REMARK  121  A    between atoms: _293  and  _294
REMARK  122  A    between atoms: _293  and  _296
REMARK  123  A    between atoms: _296  and  _297
REMARK  124  A    between atoms: _307  and  _309
REMARK  125  A    between atoms: _309  and  _310
REMARK  126  A    between atoms: _312  and  _314
REMARK  127  A    between atoms: _314  and  _315
REMARK  128  A    between atoms: _314  and  _317
REMARK  129  A    between atoms: _317  and  _318
REMARK  130  A    between atoms: _321  and  _323
REMARK  131  A    between atoms: _323  and  _324
REMARK  132  A    between atoms: _323  and  _326
REMARK  133  A    between atoms: _326  and  _327
REMARK  134  A    between atoms: _330  and  _332
REMARK  135  A    between atoms: _332  and  _333
REMARK  136  A    between atoms: _332  and  _335
REMARK  137  A    between atoms: _335  and  _336
REMARK  138  A    between atoms: _339  and  _341
REMARK  139  A    between atoms: _341  and  _342
REMARK  140  A    between atoms: _345  and  _347
REMARK  141  A    between atoms: _347  and  _348
REMARK  142  A    between atoms: _347  and  _350
REMARK  143  A    between atoms: _350  and  _351
REMARK  144  A    between atoms: _356  and  _357
REMARK  145  A    between atoms: _359  and  _361
REMARK  146  A    between atoms: _361  and  _362
REMARK  147  A    between atoms: _361  and  _364
REMARK  148  A    between atoms: _364  and  _365
REMARK  149  A    between atoms: _365  and  _366
REMARK  150  A    between atoms: _369  and  _371
REMARK  151  A    between atoms: _371  and  _372
REMARK  152  A    between atoms: _371  and  _374
REMARK  153  A    between atoms: _374  and  _375
REMARK  154  A    between atoms: _378  and  _380
REMARK  155  A    between atoms: _380  and  _381
REMARK  156  A    between atoms: _384  and  _386
REMARK  157  A    between atoms: _386  and  _387
REMARK  158  A    between atoms: _386  and  _389
REMARK  159  A    between atoms: _389  and  _390
REMARK  160  A    between atoms: _390  and  _391
REMARK  161  A    between atoms: _391  and  _392
REMARK  162  A    between atoms: _401  and  _403
REMARK  163  A    between atoms: _403  and  _404
REMARK  164  A    between atoms: _403  and  _406
REMARK  165  A    between atoms: _406  and  _407
REMARK  166  A    between atoms: _410  and  _412
REMARK  167  A    between atoms: _412  and  _413
REMARK  168  A    between atoms: _412  and  _415
REMARK  169  A    between atoms: _415  and  _416
REMARK  170  A    between atoms: _426  and  _428
REMARK  171  A    between atoms: _428  and  _429
REMARK  172  A    between atoms: _428  and  _431
REMARK  173  A    between atoms: _431  and  _432
REMARK  174  A    between atoms: _437  and  _438
REMARK  175  A    between atoms: _440  and  _442
REMARK  176  A    between atoms: _442  and  _443
REMARK  177  A    between atoms: _442  and  _445
REMARK  178  A    between atoms: _445  and  _446
REMARK  179  A    between atoms: _451  and  _452
REMARK  180  A    between atoms: _454  and  _456
REMARK  181  A    between atoms: _456  and  _457
REMARK  182  A    between atoms: _456  and  _459
REMARK  183  A    between atoms: _459  and  _460
REMARK  184  A    between atoms: _460  and  _461
REMARK  185  A    between atoms: _461  and  _462
REMARK  186  A    between atoms: _462  and  _463
REMARK  187  A    between atoms: _467  and  _469
REMARK  188  A    between atoms: _469  and  _470
REMARK  189  A    between atoms: _469  and  _472
REMARK  190  A    between atoms: _472  and  _473
REMARK  191  A    between atoms: _476  and  _478
REMARK  192  A    between atoms: _478  and  _479
REMARK  193  A    between atoms: _478  and  _481
REMARK  194  A    between atoms: _484  and  _486
REMARK  195  A    between atoms: _486  and  _487
REMARK  196  A    between atoms: _486  and  _489
REMARK  197  A    between atoms: _489  and  _490
REMARK  198  A    between atoms: _493  and  _495
REMARK  199  A    between atoms: _495  and  _496
REMARK  200  A    between atoms: _495  and  _498
REMARK  201  A    between atoms: _498  and  _499
REMARK  202  A    between atoms: _501  and  _503
REMARK  203  A    between atoms: _503  and  _504
REMARK  204  A    between atoms: _506  and  _508
REMARK  205  A    between atoms: _508  and  _509
REMARK  206  A    between atoms: _508  and  _511
REMARK  207  A    between atoms: _511  and  _512
REMARK  208  A    between atoms: _515  and  _517
REMARK  209  A    between atoms: _517  and  _518
REMARK  210  A    between atoms: _517  and  _520
REMARK  211  A    between atoms: _520  and  _521
REMARK  212  A    between atoms: _524  and  _526
REMARK  213  A    between atoms: _526  and  _527
REMARK  214  A    between atoms: _526  and  _529
REMARK  215  A    between atoms: _529  and  _530
REMARK  216  A    between atoms: _535  and  _537
REMARK  217  A    between atoms: _537  and  _538
REMARK  218  A    between atoms: _537  and  _540
REMARK  219  A    between atoms: _540  and  _541
REMARK  220  A    between atoms: _544  and  _546
REMARK  221  A    between atoms: _546  and  _547
REMARK  222  A    between atoms: _546  and  _549
REMARK  223  A    between atoms: _549  and  _550
REMARK  224  A    between atoms: _550  and  _551
REMARK  225  A    between atoms: _551  and  _552
REMARK  226  A    between atoms: _561  and  _563
REMARK  227  A    between atoms: _563  and  _564
REMARK  228  A    between atoms: _563  and  _566
REMARK  229  A    between atoms: _566  and  _567
REMARK  230  A    between atoms: _570  and  _572
REMARK  231  A    between atoms: _572  and  _573
REMARK  232  A    between atoms: _572  and  _575
REMARK  233  A    between atoms: _575  and  _576
REMARK  234  A    between atoms: _579  and  _581
REMARK  235  A    between atoms: _581  and  _582
REMARK  236  A    between atoms: _584  and  _586
REMARK  237  A    between atoms: _586  and  _587
REMARK  238  A    between atoms: _586  and  _589
REMARK  239  A    between atoms: _589  and  _590
REMARK  240  A    between atoms: _590  and  _591
REMARK  241  A    between atoms: _591  and  _592
REMARK  242  A    between atoms: _601  and  _603
REMARK  243  A    between atoms: _603  and  _604
REMARK  244  A    between atoms: _603  and  _606
REMARK  245  A    between atoms: _606  and  _607
REMARK  246  A    between atoms: _613  and  _615
REMARK  247  A    between atoms: _615  and  _616
REMARK  248  A    between atoms: _619  and  _621
REMARK  249  A    between atoms: _621  and  _622
REMARK  250  A    between atoms: _621  and  _624
REMARK  251  A    between atoms: _624  and  _625
REMARK  252  A    between atoms: _628  and  _630
REMARK  253  A    between atoms: _630  and  _631
REMARK  254  A    between atoms: _630  and  _633
REMARK  255  A    between atoms: _633  and  _634
REMARK  256  A    between atoms: _636  and  _638
REMARK  257  A    between atoms: _638  and  _639
REMARK  258  A    between atoms: _638  and  _641
REMARK  259  A    between atoms: _641  and  _642
REMARK  260  A    between atoms: _642  and  _643
REMARK  261  A    between atoms: _648  and  _650
REMARK  262  A    between atoms: _650  and  _651
REMARK  263  A    between atoms: _650  and  _653
REMARK  264  A    between atoms: _653  and  _654
REMARK  265  A    between atoms: _656  and  _658
REMARK  266  A    between atoms: _658  and  _659
REMARK  267  A    between atoms: _658  and  _661
REMARK  268  A    between atoms: _661  and  _662
REMARK  269  A    between atoms: _665  and  _667
REMARK  270  A    between atoms: _667  and  _668
REMARK  271  A    between atoms: _667  and  _670
REMARK  272  A    between atoms: _670  and  _671
REMARK  273  A    between atoms: _674  and  _676
REMARK  274  A    between atoms: _676  and  _677
REMARK  275  A    between atoms: _676  and  _679
REMARK  276  A    between atoms: _682  and  _684
REMARK  277  A    between atoms: _684  and  _685
REMARK  278  A    between atoms: _684  and  _687
REMARK  279  A    between atoms: _687  and  _688
REMARK  280  A    between atoms: _688  and  _689
REMARK  281  A    between atoms: _691  and  _693
REMARK  282  A    between atoms: _693  and  _694
REMARK  283  A    between atoms: _696  and  _698
REMARK  284  A    between atoms: _698  and  _699
REMARK  285  A    between atoms: _702  and  _704
REMARK  286  A    between atoms: _704  and  _705
REMARK  287  A    between atoms: _704  and  _707
REMARK  288  A    between atoms: _710  and  _712
REMARK  289  A    between atoms: _712  and  _713
REMARK  290  A    between atoms: _712  and  _715
REMARK  291  A    between atoms: _715  and  _716
REMARK  292  A    between atoms: _716  and  _717
REMARK  293  A    between atoms: _719  and  _721
REMARK  294  A    between atoms: _721  and  _722
REMARK  295  A    between atoms: _721  and  _724
REMARK  296  A    between atoms: _724  and  _725
REMARK  297  A    between atoms: _725  and  _726
REMARK                            x       y       z     vdW  Elec       q    Type
REMARK                         _______ _______ _______ _____ _____    ______ ____
ROOT
ATOM      1  CG  LYS A   1     -10.018   7.874  31.938  0.00  0.00    -0.000 C 
ENDROOT
BRANCH   1   2
ATOM      2  CB  LYS A   1     -10.184   9.168  32.729  0.00  0.00    +0.025 C 
BRANCH   2   3
ATOM      3  CA  LYS A   1      -9.416  10.330  32.115  0.00  0.00    +0.133 C 
BRANCH   3   4
ATOM      4  N   LYS A   1      -9.838  10.512  30.731  0.00  0.00    -0.239 NA
ATOM      5  H   LYS A   1      -9.142  10.394  29.967  0.00  0.00    +0.142 HD
ENDBRANCH   3   4
BRANCH   3   6
ATOM      6  C   LYS A   1      -7.918  10.060  32.279  0.00  0.00    +0.224 C 
ATOM      7  O   LYS A   1      -7.203   9.783  31.316  0.00  0.00    -0.287 OA
ENDBRANCH   3   6
ENDBRANCH   2   3
ENDBRANCH   1   2
BRANCH   1   8
ATOM      8  CD  LYS A   1     -10.779   6.709  32.564  0.00  0.00    -0.024 C 
BRANCH   8   9
ATOM      9  CE  LYS A   1     -10.643   5.466  31.711  0.00  0.00    -0.086 C 
BRANCH   9  10
ATOM     10  NZ  LYS A   1     -11.175   5.710  30.343  0.00  0.00    +0.380 N 
ATOM     11  HZ1 LYS A   1     -12.180   5.969  30.404  0.00  0.00    -0.089 HD
ATOM     12  HZ2 LYS A   1     -10.642   6.485  29.898  0.00  0.00    -0.089 HD
ATOM     13  HZ3 LYS A   1     -11.073   4.846  29.773  0.00  0.00    -0.089 HD
ENDBRANCH   9  10
ENDBRANCH   8   9
ENDBRANCH   1   8
TORSDOF 7
REMARK  Name = ../refined-set-2016/2p4j/2p4j_pocket.pdb
REMARK  297 active torsions:
REMARK  status: ('A' for Active; 'I' for Inactive)
REMARK    1  A    between atoms: _1  and  _3
REMARK    2  A    between atoms: _3  and  _4
REMARK    3  A    between atoms: _6  and  _8
REMARK    4  A    between atoms: _8  and  _9
REMARK    5  A    between atoms: _8  and  _11
REMARK    6  A    between atoms: _11  and  _12
REMARK    7  A    between atoms: _12  and  _13
REMARK    8  A    between atoms: _13  and  _14
REMARK    9  A    between atoms: _14  and  _15
REMARK   10  A    between atoms: _19  and  _21
REMARK   11  A    between atoms: _21  and  _22
REMARK   12  A    between atoms: _21  and  _24
REMARK   13  A    between atoms: _24  and  _25
REMARK   14  A    between atoms: _27  and  _29
REMARK   15  A    between atoms: _29  and  _30
REMARK   16  A    between atoms: _32  and  _34
REMARK   17  A    between atoms: _34  and  _35
REMARK   18  A    between atoms: _34  and  _37
REMARK   19  A    between atoms: _37  and  _38
REMARK   20  A    between atoms: _38  and  _39
REMARK   21  A    between atoms: _44  and  _46
REMARK   22  A    between atoms: _46  and  _47
REMARK   23  A    between atoms: _49  and  _51
REMARK   24  A    between atoms: _51  and  _52
REMARK   25  A    between atoms: _51  and  _54
REMARK   26  A    between atoms: _54  and  _55
REMARK   27  A    between atoms: _60  and  _61
REMARK   28  A    between atoms: _63  and  _65
REMARK   29  A    between atoms: _65  and  _66
REMARK   30  A    between atoms: _65  and  _68
REMARK   31  A    between atoms: _68  and  _69
REMARK   32  A    between atoms: _72  and  _74
REMARK   33  A    between atoms: _74  and  _75
REMARK   34  A    between atoms: _74  and  _77
REMARK   35  A    between atoms: _80  and  _82
REMARK   36  A    between atoms: _82  and  _83
REMARK   37  A    between atoms: _82  and  _85
REMARK   38  A    between atoms: _85  and  _86
REMARK   39  A    between atoms: _89  and  _91
REMARK   40  A    between atoms: _91  and  _92
REMARK   41  A    between atoms: _91  and  _94
REMARK   42  A    between atoms: _94  and  _95
REMARK   43  A    between atoms: _98  and  _100
REMARK   44  A    between atoms: _100  and  _101
REMARK   45  A    between atoms: _103  and  _105
REMARK   46  A    between atoms: _105  and  _106
REMARK   47  A    between atoms: _105  and  _108
REMARK   48  A    between atoms: _108  and  _109
REMARK   49  A    between atoms: _111  and  _113
REMARK   50  A    between atoms: _113  and  _114
REMARK   51  A    between atoms: _113  and  _116
REMARK   52  A    between atoms: _116  and  _117
REMARK   53  A    between atoms: _119  and  _121
REMARK   54  A    between atoms: _121  and  _122
REMARK   55  A    between atoms: _121  and  _124
REMARK   56  A    between atoms: _124  and  _125
REMARK   57  A    between atoms: _130  and  _132
REMARK   58  A    between atoms: _132  and  _133
REMARK   59  A    between atoms: _132  and  _135
REMARK   60  A    between atoms: _135  and  _136
REMARK   61  A    between atoms: _141  and  _142
REMARK   62  A    between atoms: _144  and  _146
REMARK   63  A    between atoms: _146  and  _147
REMARK   64  A    between atoms: _146  and  _149
REMARK   65  A    between atoms: _153  and  _154
REMARK   66  A    between atoms: _159  and  _161
REMARK   67  A    between atoms: _161  and  _162
REMARK   68  A    between atoms: _161  and  _164
REMARK   69  A    between atoms: _164  and  _165
REMARK   70  A    between atoms: _170  and  _171
REMARK   71  A    between atoms: _173  and  _175
REMARK   72  A    between atoms: _175  and  _176
REMARK   73  A    between atoms: _175  and  _178
REMARK   74  A    between atoms: _178  and  _179
REMARK   75  A    between atoms: _182  and  _184
REMARK   76  A    between atoms: _184  and  _185
REMARK   77  A    between atoms: _184  and  _187
REMARK   78  A    between atoms: _187  and  _188
REMARK   79  A    between atoms: _188  and  _189
REMARK   80  A    between atoms: _194  and  _196
REMARK   81  A    between atoms: _196  and  _197
REMARK   82  A    between atoms: _199  and  _201
REMARK   83  A    between atoms: _201  and  _202
REMARK   84  A    between atoms: _201  and  _204
REMARK   85  A    between atoms: _204  and  _205
REMARK   86  A    between atoms: _205  and  _206
REMARK   87  A    between atoms: _206  and  _207
REMARK   88  A    between atoms: _207  and  _208
REMARK   89  A    between atoms: _212  and  _214
REMARK   90  A    between atoms: _214  and  _215
REMARK   91  A    between atoms: _214  and  _217
REMARK   92  A    between atoms: _217  and  _218
REMARK   93  A    between atoms: _228  and  _230
REMARK   94  A    between atoms: _230  and  _231
REMARK   95  A    between atoms: _230  and  _233
REMARK   96  A    between atoms: _233  and  _234
REMARK   97  A    between atoms: _237  and  _239
REMARK   98  A    between atoms: _239  and  _240
REMARK   99  A    between atoms: _239  and  _242
REMARK  100  A    between atoms: _242  and  _243
REMARK  101  A    between atoms: _243  and  _244
REMARK  102  A    between atoms: _244  and  _245
REMARK  103  A    between atoms: _245  and  _246
REMARK  104  A    between atoms: _250  and  _252
REMARK  105  A    between atoms: _252  and  _253
REMARK  106  A    between atoms: _252  and  _255
REMARK  107  A    between atoms: _255  and  _256
REMARK  108  A    between atoms: _262  and  _264
REMARK  109  A    between atoms: _264  and  _265
REMARK  110  A    between atoms: _264  and  _267
REMARK  111  A    between atoms: _267  and  _268
REMARK  112  A    between atoms: _274  and  _276
REMARK  113  A    between atoms: _276  and  _277
REMARK  114  A    between atoms: _276  and  _279
REMARK  115  A    between atoms: _279  and  _280
REMARK  116  A    between atoms: _283  and  _285
REMARK  117  A    between atoms: _285  and  _286
REMARK  118  A    between atoms: _285  and  _288
REMARK  119  A    between atoms: _288  and  _289
REMARK  120  A    between atoms: _291  and  _293
REMARK  121  A    between atoms: _293  and  _294
REMARK  122  A    between atoms: _293  and  _296
REMARK  123  A    between atoms: _296  and  _297
REMARK  124  A    between atoms: _307  and  _309
REMARK  125  A    between atoms: _309  and  _310
REMARK  126  A    between atoms: _312  and  _314
REMARK  127  A    between atoms: _314  and  _315
REMARK  128  A    between atoms: _314  and  _317
REMARK  129  A    between atoms: _317  and  _318
REMARK  130  A    between atoms: _321  and  _323
REMARK  131  A    between atoms: _323  and  _324
REMARK  132  A    between atoms: _323  and  _326
REMARK  133  A    between atoms: _326  and  _327
REMARK  134  A    between atoms: _330  and  _332
REMARK  135  A    between atoms: _332  and  _333
REMARK  136  A    between atoms: _332  and  _335
REMARK  137  A    between atoms: _335  and  _336
REMARK  138  A    between atoms: _339  and  _341
REMARK  139  A    between atoms: _341  and  _342
REMARK  140  A    between atoms: _345  and  _347
REMARK  141  A    between atoms: _347  and  _348
REMARK  142  A    between atoms: _347  and  _350
REMARK  143  A    between atoms: _350  and  _351
REMARK  144  A    between atoms: _356  and  _357
REMARK  145  A    between atoms: _359  and  _361
REMARK  146  A    between atoms: _361  and  _362
REMARK  147  A    between atoms: _361  and  _364
REMARK  148  A    between atoms: _364  and  _365
REMARK  149  A    between atoms: _365  and  _366
REMARK  150  A    between atoms: _369  and  _371
REMARK  151  A    between atoms: _371  and  _372
REMARK  152  A    between atoms: _371  and  _374
REMARK  153  A    between atoms: _374  and  _375
REMARK  154  A    between atoms: _378  and  _380
REMARK  155  A    between atoms: _380  and  _381
REMARK  156  A    between atoms: _384  and  _386
REMARK  157  A    between atoms: _386  and  _387
REMARK  158  A    between atoms: _386  and  _389
REMARK  159  A    between atoms: _389  and  _390
REMARK  160  A    between atoms: _390  and  _391
REMARK  161  A    between atoms: _391  and  _392
REMARK  162  A    between atoms: _401  and  _403
REMARK  163  A    between atoms: _403  and  _404
REMARK  164  A    between atoms: _403  and  _406
REMARK  165  A    between atoms: _406  and  _407
REMARK  166  A    between atoms: _410  and  _412
REMARK  167  A    between atoms: _412  and  _413
REMARK  168  A    between atoms: _412  and  _415
REMARK  169  A    between atoms: _415  and  _416
REMARK  170  A    between atoms: _426  and  _428
REMARK  171  A    between atoms: _428  and  _429
REMARK  172  A    between atoms: _428  and  _431
REMARK  173  A    between atoms: _431  and  _432
REMARK  174  A    between atoms: _437  and  _438
REMARK  175  A    between atoms: _440  and  _442
REMARK  176  A    between atoms: _442  and  _443
REMARK  177  A    between atoms: _442  and  _445
REMARK  178  A    between atoms: _445  and  _446
REMARK  179  A    between atoms: _451  and  _452
REMARK  180  A    between atoms: _454  and  _456
REMARK  181  A    between atoms: _456  and  _457
REMARK  182  A    between atoms: _456  and  _459
REMARK  183  A    between atoms: _459  and  _460
REMARK  184  A    between atoms: _460  and  _461
REMARK  185  A    between atoms: _461  and  _462
REMARK  186  A    between atoms: _462  and  _463
REMARK  187  A    between atoms: _467  and  _469
REMARK  188  A    between atoms: _469  and  _470
REMARK  189  A    between atoms: _469  and  _472
REMARK  190  A    between atoms: _472  and  _473
REMARK  191  A    between atoms: _476  and  _478
REMARK  192  A    between atoms: _478  and  _479
REMARK  193  A    between atoms: _478  and  _481
REMARK  194  A    between atoms: _484  and  _486
REMARK  195  A    between atoms: _486  and  _487
REMARK  196  A    between atoms: _486  and  _489
REMARK  197  A    between atoms: _489  and  _490
REMARK  198  A    between atoms: _493  and  _495
REMARK  199  A    between atoms: _495  and  _496
REMARK  200  A    between atoms: _495  and  _498
REMARK  201  A    between atoms: _498  and  _499
REMARK  202  A    between atoms: _501  and  _503
REMARK  203  A    between atoms: _503  and  _504
REMARK  204  A    between atoms: _506  and  _508
REMARK  205  A    between atoms: _508  and  _509
REMARK  206  A    between atoms: _508  and  _511
REMARK  207  A    between atoms: _511  and  _512
REMARK  208  A    between atoms: _515  and  _517
REMARK  209  A    between atoms: _517  and  _518
REMARK  210  A    between atoms: _517  and  _520
REMARK  211  A    between atoms: _520  and  _521
REMARK  212  A    between atoms: _524  and  _526
REMARK  213  A    between atoms: _526  and  _527
REMARK  214  A    between atoms: _526  and  _529
REMARK  215  A    between atoms: _529  and  _530
REMARK  216  A    between atoms: _535  and  _537
REMARK  217  A    between atoms: _537  and  _538
REMARK  218  A    between atoms: _537  and  _540
REMARK  219  A    between atoms: _540  and  _541
REMARK  220  A    between atoms: _544  and  _546
REMARK  221  A    between atoms: _546  and  _547
REMARK  222  A    between atoms: _546  and  _549
REMARK  223  A    between atoms: _549  and  _550
REMARK  224  A    between atoms: _550  and  _551
REMARK  225  A    between atoms: _551  and  _552
REMARK  226  A    between atoms: _561  and  _563
REMARK  227  A    between atoms: _563  and  _564
REMARK  228  A    between atoms: _563  and  _566
REMARK  229  A    between atoms: _566  and  _567
REMARK  230  A    between atoms: _570  and  _572
REMARK  231  A    between atoms: _572  and  _573
REMARK  232  A    between atoms: _572  and  _575
REMARK  233  A    between atoms: _575  and  _576
REMARK  234  A    between atoms: _579  and  _581
REMARK  235  A    between atoms: _581  and  _582
REMARK  236  A    between atoms: _584  and  _586
REMARK  237  A    between atoms: _586  and  _587
REMARK  238  A    between atoms: _586  and  _589
REMARK  239  A    between atoms: _589  and  _590
REMARK  240  A    between atoms: _590  and  _591
REMARK  241  A    between atoms: _591  and  _592
REMARK  242  A    between atoms: _601  and  _603
REMARK  243  A    between atoms: _603  and  _604
REMARK  244  A    between atoms: _603  and  _606
REMARK  245  A    between atoms: _606  and  _607
REMARK  246  A    between atoms: _613  and  _615
REMARK  247  A    between atoms: _615  and  _616
REMARK  248  A    between atoms: _619  and  _621
REMARK  249  A    between atoms: _621  and  _622
REMARK  250  A    between atoms: _621  and  _624
REMARK  251  A    between atoms: _624  and  _625
REMARK  252  A    between atoms: _628  and  _630
REMARK  253  A    between atoms: _630  and  _631
REMARK  254  A    between atoms: _630  and  _633
REMARK  255  A    between atoms: _633  and  _634
REMARK  256  A    between atoms: _636  and  _638
REMARK  257  A    between atoms: _638  and  _639
REMARK  258  A    between atoms: _638  and  _641
REMARK  259  A    between atoms: _641  and  _642
REMARK  260  A    between atoms: _642  and  _643
REMARK  261  A    between atoms: _648  and  _650
REMARK  262  A    between atoms: _650  and  _651
REMARK  263  A    between atoms: _650  and  _653
REMARK  264  A    between atoms: _653  and  _654
REMARK  265  A    between atoms: _656  and  _658
REMARK  266  A    between atoms: _658  and  _659
REMARK  267  A    between atoms: _658  and  _661
REMARK  268  A    between atoms: _661  and  _662
REMARK  269  A    between atoms: _665  and  _667
REMARK  270  A    between atoms: _667  and  _668
REMARK  271  A    between atoms: _667  and  _670
REMARK  272  A    between atoms: _670  and  _671
REMARK  273  A    between atoms: _674  and  _676
REMARK  274  A    between atoms: _676  and  _677
REMARK  275  A    between atoms: _676  and  _679
REMARK  276  A    between atoms: _682  and  _684
REMARK  277  A    between atoms: _684  and  _685
REMARK  278  A    between atoms: _684  and  _687
REMARK  279  A    between atoms: _687  and  _688
REMARK  280  A    between atoms: _688  and  _689
REMARK  281  A    between atoms: _691  and  _693
REMARK  282  A    between atoms: _693  and  _694
REMARK  283  A    between atoms: _696  and  _698
REMARK  284  A    between atoms: _698  and  _699
REMARK  285  A    between atoms: _702  and  _704
REMARK  286  A    between atoms: _704  and  _705
REMARK  287  A    between atoms: _704  and  _707
REMARK  288  A    between atoms: _710  and  _712
REMARK  289  A    between atoms: _712  and  _713
REMARK  290  A    between atoms: _712  and  _715
REMARK  291  A    between atoms: _715  and  _716
REMARK  292  A    between atoms: _716  and  _717
REMARK  293  A    between atoms: _719  and  _721
REMARK  294  A    between atoms: _721  and  _722
REMARK  295  A    between atoms: _721  and  _724
REMARK  296  A    between atoms: _724  and  _725
REMARK  297  A    between atoms: _725  and  _726
REMARK                            x       y       z     vdW  Elec       q    Type
REMARK                         _______ _______ _______ _____ _____    ______ ____
ROOT
ATOM      1  CA  THR A   7       3.773  -1.138  31.478  0.00  0.00    +0.176 C 
ENDROOT
BRANCH   1   2
ATOM      2  C   THR A   7       4.155   0.313  31.249  0.00  0.00    +0.243 C 
ATOM      3  O   THR A   7       4.973   0.881  31.988  0.00  0.00    -0.273 OA
ATOM      4  N   ASN A   8       3.549   0.897  30.216  0.00  0.00    -0.297 N 
ATOM      5  H   ASN A   8       2.823   0.361  29.700  0.00  0.00    +0.150 HD
BRANCH   4   6
ATOM      6  CA  ASN A   8       3.857   2.256  29.774  0.00  0.00    +0.158 C 
BRANCH   6   7
ATOM      7  C   ASN A   8       3.209   3.466  30.429  0.00  0.00    +0.241 C 
ATOM      8  O   ASN A   8       2.301   3.356  31.247  0.00  0.00    -0.273 OA
ATOM      9  N   LEU A   9       3.739   4.630  30.065  0.00  0.00    -0.297 N 
ATOM     10  H   LEU A   9       4.589   4.637  29.465  0.00  0.00    +0.150 HD
BRANCH   9  11
ATOM     11  CA  LEU A   9       3.159   5.885  30.485  0.00  0.00    +0.149 C 
BRANCH  11  12
ATOM     12  C   LEU A   9       2.382   6.039  29.196  0.00  0.00    +0.241 C 
ATOM     13  N   ARG A  10       1.070   5.926  29.282  0.00  0.00    -0.297 N 
ATOM     14  H   ARG A  10       0.626   5.740  30.204  0.00  0.00    +0.150 HD
ATOM     15  O   LEU A   9       2.971   6.203  28.125  0.00  0.00    -0.273 OA
BRANCH  13  16
ATOM     16  CA  ARG A  10       0.251   6.059  28.107  0.00  0.00    +0.149 C 
BRANCH  16  17
ATOM     17  C   ARG A  10      -0.345   7.442  28.146  0.00  0.00    +0.241 C 
ATOM     18  O   ARG A  10      -0.755   7.921  29.209  0.00  0.00    -0.273 OA
ATOM     19  N   LEU A  11      -0.376   8.085  26.985  0.00  0.00    -0.298 N 
ATOM     20  H   LEU A  11      -0.011   7.611  26.134  0.00  0.00    +0.150 HD
BRANCH  19  21
ATOM     21  CA  LEU A  11      -0.905   9.431  26.872  0.00  0.00    +0.137 C 
BRANCH  21  22
ATOM     22  C   LEU A  11      -1.932   9.605  25.760  0.00  0.00    +0.227 C 
ATOM     23  O   LEU A  11      -1.846   8.975  24.715  0.00  0.00    -0.286 OA
ENDBRANCH  21  22
BRANCH  21  24
ATOM     24  CB  LEU A  11       0.249  10.419  26.656  0.00  0.00    +0.028 C 
BRANCH  24  25
ATOM     25  CG  LEU A  11       1.343  10.406  27.735  0.00  0.00    +0.002 C 
ATOM     26  CD2 LEU A  11       0.830  11.074  29.018  0.00  0.00    +0.000 C 
ATOM     27  CD1 LEU A  11       2.610  11.099  27.204  0.00  0.00    +0.000 C 
ENDBRANCH  24  25
ENDBRANCH  21  24
ENDBRANCH  19  21
ENDBRANCH  16  17
BRANCH  16  28
ATOM     28  CB  ARG A  10      -0.832   4.999  28.119  0.00  0.00    +0.033 C 
BRANCH  28  29
ATOM     29  CG  ARG A  10      -0.277   3.595  28.308  0.00  0.00    +0.045 C 
BRANCH  29  30
ATOM     30  CD  ARG A  10      -0.814   2.674  27.259  0.00  0.00    +0.174 C 
BRANCH  30  31
ATOM     31  NE  ARG A  10      -2.259   2.644  27.325  0.00  0.00    -0.265 N 
ATOM     32  HE  ARG A  10      -2.707   2.704  28.262  0.00  0.00    +0.259 HD
ATOM     33  CZ  ARG A  10      -3.045   2.545  26.266  0.00  0.00    +0.342 C 
ATOM     34  NH2 ARG A  10      -4.352   2.524  26.426  0.00  0.00    -0.292 N 
ATOM     35 HH21 ARG A  10      -4.760   2.585  27.381  0.00  0.00    +0.255 HD
ATOM     36 HH22 ARG A  10      -4.976   2.446  25.598  0.00  0.00    +0.255 HD
ATOM     37  NH1 ARG A  10      -2.521   2.473  25.054  0.00  0.00    -0.292 N 
ATOM     38 HH11 ARG A  10      -1.488   2.494  24.932  0.00  0.00    +0.255 HD
ATOM     39 HH12 ARG A  10      -3.141   2.395  24.223  0.00  0.00    +0.255 HD
ENDBRANCH  30  31
ENDBRANCH  29  30
ENDBRANCH  28  29
ENDBRANCH  16  28
ENDBRANCH  13  16
ENDBRANCH  11  12
BRANCH  11  40
ATOM     40  CB  LEU A   9       4.174   7.036  30.571  0.00  0.00    +0.029 C 
BRANCH  40  41
ATOM     41  CG  LEU A   9       3.733   8.319  31.310  0.00  0.00    +0.002 C 
ATOM     42  CD2 LEU A   9       2.220   8.393  31.410  0.00  0.00    +0.000 C 
ATOM     43  CD1 LEU A   9       4.283   9.569  30.585  0.00  0.00    +0.000 C 
ENDBRANCH  40  41
ENDBRANCH  11  40
ENDBRANCH   9  11
ENDBRANCH   6   7
BRANCH   6  44
ATOM     44  CB  ASN A   8       3.581   2.364  28.268  0.00  0.00    +0.114 C 
BRANCH  44  45
ATOM     45  CG  ASN A   8       4.405   1.396  27.450  0.00  0.00    +0.222 C 
ATOM     46  OD1 ASN A   8       5.200   0.619  27.988  0.00  0.00    -0.275 OA
ATOM     47  ND2 ASN A   8       4.219   1.432  26.137  0.00  0.00    -0.329 N 
ATOM     48 HD21 ASN A   8       3.539   2.103  25.726  0.00  0.00    +0.145 HD
ATOM     49 HD22 ASN A   8       4.753   0.789  25.518  0.00  0.00    +0.145 HD
ENDBRANCH  44  45
ENDBRANCH   6  44
ENDBRANCH   4   6
ENDBRANCH   1   2
BRANCH   1  52
ATOM     50  C   THR A   6       1.659  -0.958  32.620  0.00  0.00    +0.243 C 
ATOM     51  O   THR A   6       2.175  -0.348  33.551  0.00  0.00    -0.273 OA
ATOM     52  N   THR A   7       2.344  -1.373  31.569  0.00  0.00    -0.295 N 
ATOM     53  H   THR A   7       1.854  -1.873  30.800  0.00  0.00    +0.150 HD
BRANCH  50  54
ATOM     54  CA  THR A   6       0.174  -1.270  32.620  0.00  0.00    +0.176 C 
BRANCH  54  56
ATOM     55  C   GLY A   5      -0.459  -3.055  34.102  0.00  0.00    +0.243 C 
ATOM     56  N   THR A   6      -0.204  -1.769  33.927  0.00  0.00    -0.295 N 
ATOM     57  H   THR A   6      -0.275  -1.113  34.731  0.00  0.00    +0.150 HD
ATOM     58  O   GLY A   5      -0.411  -3.872  33.181  0.00  0.00    -0.273 OA
BRANCH  55  59
ATOM     59  CA  GLY A   5      -0.826  -3.475  35.508  0.00  0.00    +0.176 C 
BRANCH  59  62
ATOM     60  C   SER A   4       0.387  -2.105  37.105  0.00  0.00    +0.243 C 
ATOM     61  O   SER A   4       1.469  -2.619  36.811  0.00  0.00    -0.273 OA
ATOM     62  N   GLY A   5      -0.761  -2.427  36.514  0.00  0.00    -0.295 N 
ATOM     63  H   GLY A   5      -1.629  -1.919  36.777  0.00  0.00    +0.150 HD
BRANCH  60  64
ATOM     64  CA  SER A   4       0.314  -1.028  38.183  0.00  0.00    +0.178 C 
BRANCH  64  66
ATOM     65  C   ASP A   3      -1.018   0.597  36.961  0.00  0.00    +0.241 C 
ATOM     66  N   SER A   4      -0.858  -0.177  38.029  0.00  0.00    -0.295 N 
ATOM     67  H   SER A   4      -1.586  -0.175  38.772  0.00  0.00    +0.150 HD
ATOM     68  O   ASP A   3      -0.208   0.633  36.042  0.00  0.00    -0.273 OA
BRANCH  65  69
ATOM     69  CA  ASP A   3      -2.296   1.434  36.924  0.00  0.00    +0.160 C 
BRANCH  69  72
ATOM     70  C   VAL A   2      -3.001   3.526  37.853  0.00  0.00    +0.241 C 
ATOM     71  O   VAL A   2      -3.936   2.974  38.446  0.00  0.00    -0.273 OA
ATOM     72  N   ASP A   3      -2.131   2.856  37.112  0.00  0.00    -0.297 N 
ATOM     73  H   ASP A   3      -1.332   3.352  36.667  0.00  0.00    +0.150 HD
BRANCH  70  74
ATOM     74  CA  VAL A   2      -2.792   5.038  37.948  0.00  0.00    +0.148 C 
BRANCH  74  76
ATOM     75  C   ILE A   1      -4.170   6.297  36.382  0.00  0.00    +0.238 C 
ATOM     76  N   VAL A   2      -4.063   5.614  37.513  0.00  0.00    -0.297 N 
ATOM     77  H   VAL A   2      -4.907   5.484  38.107  0.00  0.00    +0.150 HD
ATOM     78  O   ILE A   1      -3.210   6.553  35.660  0.00  0.00    -0.274 OA
BRANCH  75  79
ATOM     79  CA  ILE A   1      -5.566   6.784  36.028  0.00  0.00    +0.145 C 
BRANCH  79  80
ATOM     80  CB  ILE A   1      -6.427   5.562  35.616  0.00  0.00    +0.025 C 
ATOM     81  CG2 ILE A   1      -7.778   6.037  35.068  0.00  0.00    +0.002 C 
BRANCH  80  82
ATOM     82  CG1 ILE A   1      -5.709   4.763  34.523  0.00  0.00    +0.002 C 
ATOM     83  CD1 ILE A   1      -6.508   3.582  33.992  0.00  0.00    +0.000 C 
ENDBRANCH  80  82
ENDBRANCH  79  80
BRANCH  79  84
ATOM     84  N   ILE A   1      -5.558   7.767  34.953  0.00  0.00    -0.238 NA
ATOM     85  H   ILE A   1      -5.104   7.530  34.048  0.00  0.00    +0.142 HD
ENDBRANCH  79  84
ENDBRANCH  75  79
ENDBRANCH  74  76
BRANCH  74  86
ATOM     86  CB  VAL A   2      -2.447   5.421  39.398  0.00  0.00    +0.027 C 
ATOM     87  CG2 VAL A   2      -1.114   4.816  39.781  0.00  0.00    +0.002 C 
ATOM     88  CG1 VAL A   2      -2.425   6.947  39.550  0.00  0.00    +0.002 C 
ENDBRANCH  74  86
ENDBRANCH  70  74
ENDBRANCH  69  72
BRANCH  69  89
ATOM     89  CB  ASP A   3      -3.029   1.225  35.607  0.00  0.00    +0.143 C 
BRANCH  89  90
ATOM     90  CG  ASP A   3      -3.357  -0.207  35.356  0.00  0.00    +0.367 C 
ATOM     91  OD2 ASP A   3      -3.672  -0.916  36.328  0.00  0.00    -0.246 OA
ATOM     92  OD1 ASP A   3      -3.315  -0.615  34.186  0.00  0.00    -0.246 OA
ENDBRANCH  89  90
ENDBRANCH  69  89
ENDBRANCH  65  69
ENDBRANCH  64  66
BRANCH  64  93
ATOM     93  CB  SER A   4       0.305  -1.701  39.563  0.00  0.00    +0.166 C 
BRANCH  93  94
ATOM     94  OG  SER A   4      -0.870  -2.472  39.758  0.00  0.00    -0.380 OA
ATOM     95  H   SER A   4      -0.920  -3.177  39.065  0.00  0.00    +0.211 HD
ENDBRANCH  93  94
ENDBRANCH  64  93
ENDBRANCH  60  64
ENDBRANCH  59  62
ENDBRANCH  55  59
ENDBRANCH  54  56
BRANCH  54  96
ATOM     96  CB  THR A   6      -0.623  -0.015  32.276  0.00  0.00    +0.137 C 
ATOM     97  CG2 THR A   6      -0.045   0.667  31.077  0.00  0.00    +0.034 C 
BRANCH  96  98
ATOM     98  OG1 THR A   6      -1.975  -0.387  32.010  0.00  0.00    -0.382 OA
ATOM     99  HG1 THR A   6      -2.361  -0.821  32.812  0.00  0.00    +0.210 HD
ENDBRANCH  96  98
ENDBRANCH  54  96
ENDBRANCH  50  54
ENDBRANCH   1  52
BRANCH   1 100
ATOM    100  CB  THR A   7       4.405  -1.915  30.315  0.00  0.00    +0.137 C 
ATOM    101  CG2 THR A   7       5.914  -1.869  30.426  0.00  0.00    +0.034 C 
BRANCH 100 102
ATOM    102  OG1 THR A   7       3.956  -3.274  30.336  0.00  0.00    -0.382 OA
ATOM    103  HG1 THR A   7       4.368  -3.768  29.583  0.00  0.00    +0.210 HD
ENDBRANCH 100 102
ENDBRANCH   1 100
TORSDOF 43
REMARK  Name = ../refined-set-2016/2p4j/2p4j_pocket.pdb
REMARK  297 active torsions:
REMARK  status: ('A' for Active; 'I' for Inactive)
REMARK    1  A    between atoms: _1  and  _3
REMARK    2  A    between atoms: _3  and  _4
REMARK    3  A    between atoms: _6  and  _8
REMARK    4  A    between atoms: _8  and  _9
REMARK    5  A    between atoms: _8  and  _11
REMARK    6  A    between atoms: _11  and  _12
REMARK    7  A    between atoms: _12  and  _13
REMARK    8  A    between atoms: _13  and  _14
REMARK    9  A    between atoms: _14  and  _15
REMARK   10  A    between atoms: _19  and  _21
REMARK   11  A    between atoms: _21  and  _22
REMARK   12  A    between atoms: _21  and  _24
REMARK   13  A    between atoms: _24  and  _25
REMARK   14  A    between atoms: _27  and  _29
REMARK   15  A    between atoms: _29  and  _30
REMARK   16  A    between atoms: _32  and  _34
REMARK   17  A    between atoms: _34  and  _35
REMARK   18  A    between atoms: _34  and  _37
REMARK   19  A    between atoms: _37  and  _38
REMARK   20  A    between atoms: _38  and  _39
REMARK   21  A    between atoms: _44  and  _46
REMARK   22  A    between atoms: _46  and  _47
REMARK   23  A    between atoms: _49  and  _51
REMARK   24  A    between atoms: _51  and  _52
REMARK   25  A    between atoms: _51  and  _54
REMARK   26  A    between atoms: _54  and  _55
REMARK   27  A    between atoms: _60  and  _61
REMARK   28  A    between atoms: _63  and  _65
REMARK   29  A    between atoms: _65  and  _66
REMARK   30  A    between atoms: _65  and  _68
REMARK   31  A    between atoms: _68  and  _69
REMARK   32  A    between atoms: _72  and  _74
REMARK   33  A    between atoms: _74  and  _75
REMARK   34  A    between atoms: _74  and  _77
REMARK   35  A    between atoms: _80  and  _82
REMARK   36  A    between atoms: _82  and  _83
REMARK   37  A    between atoms: _82  and  _85
REMARK   38  A    between atoms: _85  and  _86
REMARK   39  A    between atoms: _89  and  _91
REMARK   40  A    between atoms: _91  and  _92
REMARK   41  A    between atoms: _91  and  _94
REMARK   42  A    between atoms: _94  and  _95
REMARK   43  A    between atoms: _98  and  _100
REMARK   44  A    between atoms: _100  and  _101
REMARK   45  A    between atoms: _103  and  _105
REMARK   46  A    between atoms: _105  and  _106
REMARK   47  A    between atoms: _105  and  _108
REMARK   48  A    between atoms: _108  and  _109
REMARK   49  A    between atoms: _111  and  _113
REMARK   50  A    between atoms: _113  and  _114
REMARK   51  A    between atoms: _113  and  _116
REMARK   52  A    between atoms: _116  and  _117
REMARK   53  A    between atoms: _119  and  _121
REMARK   54  A    between atoms: _121  and  _122
REMARK   55  A    between atoms: _121  and  _124
REMARK   56  A    between atoms: _124  and  _125
REMARK   57  A    between atoms: _130  and  _132
REMARK   58  A    between atoms: _132  and  _133
REMARK   59  A    between atoms: _132  and  _135
REMARK   60  A    between atoms: _135  and  _136
REMARK   61  A    between atoms: _141  and  _142
REMARK   62  A    between atoms: _144  and  _146
REMARK   63  A    between atoms: _146  and  _147
REMARK   64  A    between atoms: _146  and  _149
REMARK   65  A    between atoms: _153  and  _154
REMARK   66  A    between atoms: _159  and  _161
REMARK   67  A    between atoms: _161  and  _162
REMARK   68  A    between atoms: _161  and  _164
REMARK   69  A    between atoms: _164  and  _165
REMARK   70  A    between atoms: _170  and  _171
REMARK   71  A    between atoms: _173  and  _175
REMARK   72  A    between atoms: _175  and  _176
REMARK   73  A    between atoms: _175  and  _178
REMARK   74  A    between atoms: _178  and  _179
REMARK   75  A    between atoms: _182  and  _184
REMARK   76  A    between atoms: _184  and  _185
REMARK   77  A    between atoms: _184  and  _187
REMARK   78  A    between atoms: _187  and  _188
REMARK   79  A    between atoms: _188  and  _189
REMARK   80  A    between atoms: _194  and  _196
REMARK   81  A    between atoms: _196  and  _197
REMARK   82  A    between atoms: _199  and  _201
REMARK   83  A    between atoms: _201  and  _202
REMARK   84  A    between atoms: _201  and  _204
REMARK   85  A    between atoms: _204  and  _205
REMARK   86  A    between atoms: _205  and  _206
REMARK   87  A    between atoms: _206  and  _207
REMARK   88  A    between atoms: _207  and  _208
REMARK   89  A    between atoms: _212  and  _214
REMARK   90  A    between atoms: _214  and  _215
REMARK   91  A    between atoms: _214  and  _217
REMARK   92  A    between atoms: _217  and  _218
REMARK   93  A    between atoms: _228  and  _230
REMARK   94  A    between atoms: _230  and  _231
REMARK   95  A    between atoms: _230  and  _233
REMARK   96  A    between atoms: _233  and  _234
REMARK   97  A    between atoms: _237  and  _239
REMARK   98  A    between atoms: _239  and  _240
REMARK   99  A    between atoms: _239  and  _242
REMARK  100  A    between atoms: _242  and  _243
REMARK  101  A    between atoms: _243  and  _244
REMARK  102  A    between atoms: _244  and  _245
REMARK  103  A    between atoms: _245  and  _246
REMARK  104  A    between atoms: _250  and  _252
REMARK  105  A    between atoms: _252  and  _253
REMARK  106  A    between atoms: _252  and  _255
REMARK  107  A    between atoms: _255  and  _256
REMARK  108  A    between atoms: _262  and  _264
REMARK  109  A    between atoms: _264  and  _265
REMARK  110  A    between atoms: _264  and  _267
REMARK  111  A    between atoms: _267  and  _268
REMARK  112  A    between atoms: _274  and  _276
REMARK  113  A    between atoms: _276  and  _277
REMARK  114  A    between atoms: _276  and  _279
REMARK  115  A    between atoms: _279  and  _280
REMARK  116  A    between atoms: _283  and  _285
REMARK  117  A    between atoms: _285  and  _286
REMARK  118  A    between atoms: _285  and  _288
REMARK  119  A    between atoms: _288  and  _289
REMARK  120  A    between atoms: _291  and  _293
REMARK  121  A    between atoms: _293  and  _294
REMARK  122  A    between atoms: _293  and  _296
REMARK  123  A    between atoms: _296  and  _297
REMARK  124  A    between atoms: _307  and  _309
REMARK  125  A    between atoms: _309  and  _310
REMARK  126  A    between atoms: _312  and  _314
REMARK  127  A    between atoms: _314  and  _315
REMARK  128  A    between atoms: _314  and  _317
REMARK  129  A    between atoms: _317  and  _318
REMARK  130  A    between atoms: _321  and  _323
REMARK  131  A    between atoms: _323  and  _324
REMARK  132  A    between atoms: _323  and  _326
REMARK  133  A    between atoms: _326  and  _327
REMARK  134  A    between atoms: _330  and  _332
REMARK  135  A    between atoms: _332  and  _333
REMARK  136  A    between atoms: _332  and  _335
REMARK  137  A    between atoms: _335  and  _336
REMARK  138  A    between atoms: _339  and  _341
REMARK  139  A    between atoms: _341  and  _342
REMARK  140  A    between atoms: _345  and  _347
REMARK  141  A    between atoms: _347  and  _348
REMARK  142  A    between atoms: _347  and  _350
REMARK  143  A    between atoms: _350  and  _351
REMARK  144  A    between atoms: _356  and  _357
REMARK  145  A    between atoms: _359  and  _361
REMARK  146  A    between atoms: _361  and  _362
REMARK  147  A    between atoms: _361  and  _364
REMARK  148  A    between atoms: _364  and  _365
REMARK  149  A    between atoms: _365  and  _366
REMARK  150  A    between atoms: _369  and  _371
REMARK  151  A    between atoms: _371  and  _372
REMARK  152  A    between atoms: _371  and  _374
REMARK  153  A    between atoms: _374  and  _375
REMARK  154  A    between atoms: _378  and  _380
REMARK  155  A    between atoms: _380  and  _381
REMARK  156  A    between atoms: _384  and  _386
REMARK  157  A    between atoms: _386  and  _387
REMARK  158  A    between atoms: _386  and  _389
REMARK  159  A    between atoms: _389  and  _390
REMARK  160  A    between atoms: _390  and  _391
REMARK  161  A    between atoms: _391  and  _392
REMARK  162  A    between atoms: _401  and  _403
REMARK  163  A    between atoms: _403  and  _404
REMARK  164  A    between atoms: _403  and  _406
REMARK  165  A    between atoms: _406  and  _407
REMARK  166  A    between atoms: _410  and  _412
REMARK  167  A    between atoms: _412  and  _413
REMARK  168  A    between atoms: _412  and  _415
REMARK  169  A    between atoms: _415  and  _416
REMARK  170  A    between atoms: _426  and  _428
REMARK  171  A    between atoms: _428  and  _429
REMARK  172  A    between atoms: _428  and  _431
REMARK  173  A    between atoms: _431  and  _432
REMARK  174  A    between atoms: _437  and  _438
REMARK  175  A    between atoms: _440  and  _442
REMARK  176  A    between atoms: _442  and  _443
REMARK  177  A    between atoms: _442  and  _445
REMARK  178  A    between atoms: _445  and  _446
REMARK  179  A    between atoms: _451  and  _452
REMARK  180  A    between atoms: _454  and  _456
REMARK  181  A    between atoms: _456  and  _457
REMARK  182  A    between atoms: _456  and  _459
REMARK  183  A    between atoms: _459  and  _460
REMARK  184  A    between atoms: _460  and  _461
REMARK  185  A    between atoms: _461  and  _462
REMARK  186  A    between atoms: _462  and  _463
REMARK  187  A    between atoms: _467  and  _469
REMARK  188  A    between atoms: _469  and  _470
REMARK  189  A    between atoms: _469  and  _472
REMARK  190  A    between atoms: _472  and  _473
REMARK  191  A    between atoms: _476  and  _478
REMARK  192  A    between atoms: _478  and  _479
REMARK  193  A    between atoms: _478  and  _481
REMARK  194  A    between atoms: _484  and  _486
REMARK  195  A    between atoms: _486  and  _487
REMARK  196  A    between atoms: _486  and  _489
REMARK  197  A    between atoms: _489  and  _490
REMARK  198  A    between atoms: _493  and  _495
REMARK  199  A    between atoms: _495  and  _496
REMARK  200  A    between atoms: _495  and  _498
REMARK  201  A    between atoms: _498  and  _499
REMARK  202  A    between atoms: _501  and  _503
REMARK  203  A    between atoms: _503  and  _504
REMARK  204  A    between atoms: _506  and  _508
REMARK  205  A    between atoms: _508  and  _509
REMARK  206  A    between atoms: _508  and  _511
REMARK  207  A    between atoms: _511  and  _512
REMARK  208  A    between atoms: _515  and  _517
REMARK  209  A    between atoms: _517  and  _518
REMARK  210  A    between atoms: _517  and  _520
REMARK  211  A    between atoms: _520  and  _521
REMARK  212  A    between atoms: _524  and  _526
REMARK  213  A    between atoms: _526  and  _527
REMARK  214  A    between atoms: _526  and  _529
REMARK  215  A    between atoms: _529  and  _530
REMARK  216  A    between atoms: _535  and  _537
REMARK  217  A    between atoms: _537  and  _538
REMARK  218  A    between atoms: _537  and  _540
REMARK  219  A    between atoms: _540  and  _541
REMARK  220  A    between atoms: _544  and  _546
REMARK  221  A    between atoms: _546  and  _547
REMARK  222  A    between atoms: _546  and  _549
REMARK  223  A    between atoms: _549  and  _550
REMARK  224  A    between atoms: _550  and  _551
REMARK  225  A    between atoms: _551  and  _552
REMARK  226  A    between atoms: _561  and  _563
REMARK  227  A    between atoms: _563  and  _564
REMARK  228  A    between atoms: _563  and  _566
REMARK  229  A    between atoms: _566  and  _567
REMARK  230  A    between atoms: _570  and  _572
REMARK  231  A    between atoms: _572  and  _573
REMARK  232  A    between atoms: _572  and  _575
REMARK  233  A    between atoms: _575  and  _576
REMARK  234  A    between atoms: _579  and  _581
REMARK  235  A    between atoms: _581  and  _582
REMARK  236  A    between atoms: _584  and  _586
REMARK  237  A    between atoms: _586  and  _587
REMARK  238  A    between atoms: _586  and  _589
REMARK  239  A    between atoms: _589  and  _590
REMARK  240  A    between atoms: _590  and  _591
REMARK  241  A    between atoms: _591  and  _592
REMARK  242  A    between atoms: _601  and  _603
REMARK  243  A    between atoms: _603  and  _604
REMARK  244  A    between atoms: _603  and  _606
REMARK  245  A    between atoms: _606  and  _607
REMARK  246  A    between atoms: _613  and  _615
REMARK  247  A    between atoms: _615  and  _616
REMARK  248  A    between atoms: _619  and  _621
REMARK  249  A    between atoms: _621  and  _622
REMARK  250  A    between atoms: _621  and  _624
REMARK  251  A    between atoms: _624  and  _625
REMARK  252  A    between atoms: _628  and  _630
REMARK  253  A    between atoms: _630  and  _631
REMARK  254  A    between atoms: _630  and  _633
REMARK  255  A    between atoms: _633  and  _634
REMARK  256  A    between atoms: _636  and  _638
REMARK  257  A    between atoms: _638  and  _639
REMARK  258  A    between atoms: _638  and  _641
REMARK  259  A    between atoms: _641  and  _642
REMARK  260  A    between atoms: _642  and  _643
REMARK  261  A    between atoms: _648  and  _650
REMARK  262  A    between atoms: _650  and  _651
REMARK  263  A    between atoms: _650  and  _653
REMARK  264  A    between atoms: _653  and  _654
REMARK  265  A    between atoms: _656  and  _658
REMARK  266  A    between atoms: _658  and  _659
REMARK  267  A    between atoms: _658  and  _661
REMARK  268  A    between atoms: _661  and  _662
REMARK  269  A    between atoms: _665  and  _667
REMARK  270  A    between atoms: _667  and  _668
REMARK  271  A    between atoms: _667  and  _670
REMARK  272  A    between atoms: _670  and  _671
REMARK  273  A    between atoms: _674  and  _676
REMARK  274  A    between atoms: _676  and  _677
REMARK  275  A    between atoms: _676  and  _679
REMARK  276  A    between atoms: _682  and  _684
REMARK  277  A    between atoms: _684  and  _685
REMARK  278  A    between atoms: _684  and  _687
REMARK  279  A    between atoms: _687  and  _688
REMARK  280  A    between atoms: _688  and  _689
REMARK  281  A    between atoms: _691  and  _693
REMARK  282  A    between atoms: _693  and  _694
REMARK  283  A    between atoms: _696  and  _698
REMARK  284  A    between atoms: _698  and  _699
REMARK  285  A    between atoms: _702  and  _704
REMARK  286  A    between atoms: _704  and  _705
REMARK  287  A    between atoms: _704  and  _707
REMARK  288  A    between atoms: _710  and  _712
REMARK  289  A    between atoms: _712  and  _713
REMARK  290  A    between atoms: _712  and  _715
REMARK  291  A    between atoms: _715  and  _716
REMARK  292  A    between atoms: _716  and  _717
REMARK  293  A    between atoms: _719  and  _721
REMARK  294  A    between atoms: _721  and  _722
REMARK  295  A    between atoms: _721  and  _724
REMARK  296  A    between atoms: _724  and  _725
REMARK  297  A    between atoms: _725  and  _726
REMARK                            x       y       z     vdW  Elec       q    Type
REMARK                         _______ _______ _______ _____ _____    ______ ____
ROOT
ATOM      1  CA  LEU A   1       6.482   3.703  18.397  0.00  0.00    +0.145 C 
ENDROOT
BRANCH   1   2
ATOM      2  C   LEU A   1       6.503   2.594  19.439  0.00  0.00    +0.238 C 
ATOM      3  N   GLY A   2       7.682   2.363  20.013  0.00  0.00    -0.297 N 
ATOM      4  H   GLY A   2       8.507   2.930  19.731  0.00  0.00    +0.150 HD
ATOM      5  O   LEU A   1       5.476   1.960  19.710  0.00  0.00    -0.274 OA
BRANCH   3   6
ATOM      6  CA  GLY A   2       7.837   1.336  21.023  0.00  0.00    +0.163 C 
BRANCH   6   7
ATOM      7  C   GLY A   2       7.966  -0.046  20.428  0.00  0.00    +0.229 C 
ATOM      8  O   GLY A   2       7.854  -1.041  21.138  0.00  0.00    -0.286 OA
ENDBRANCH   6   7
ENDBRANCH   3   6
ENDBRANCH   1   2
BRANCH   1   9
ATOM      9  N   LEU A   1       7.773   4.372  18.371  0.00  0.00    -0.238 NA
ATOM     10  H   LEU A   1       8.522   4.019  17.741  0.00  0.00    +0.142 HD
ENDBRANCH   1   9
BRANCH   1  11
ATOM     11  CB  LEU A   1       6.175   3.113  17.025  0.00  0.00    +0.026 C 
BRANCH  11  12
ATOM     12  CG  LEU A   1       6.091   4.100  15.862  0.00  0.00    +0.002 C 
ATOM     13  CD2 LEU A   1       4.980   5.104  16.105  0.00  0.00    +0.000 C 
ATOM     14  CD1 LEU A   1       5.837   3.334  14.589  0.00  0.00    +0.000 C 
ENDBRANCH  11  12
ENDBRANCH   1  11
TORSDOF 6
REMARK  Name = ../refined-set-2016/2p4j/2p4j_pocket.pdb
REMARK  297 active torsions:
REMARK  status: ('A' for Active; 'I' for Inactive)
REMARK    1  A    between atoms: _1  and  _3
REMARK    2  A    between atoms: _3  and  _4
REMARK    3  A    between atoms: _6  and  _8
REMARK    4  A    between atoms: _8  and  _9
REMARK    5  A    between atoms: _8  and  _11
REMARK    6  A    between atoms: _11  and  _12
REMARK    7  A    between atoms: _12  and  _13
REMARK    8  A    between atoms: _13  and  _14
REMARK    9  A    between atoms: _14  and  _15
REMARK   10  A    between atoms: _19  and  _21
REMARK   11  A    between atoms: _21  and  _22
REMARK   12  A    between atoms: _21  and  _24
REMARK   13  A    between atoms: _24  and  _25
REMARK   14  A    between atoms: _27  and  _29
REMARK   15  A    between atoms: _29  and  _30
REMARK   16  A    between atoms: _32  and  _34
REMARK   17  A    between atoms: _34  and  _35
REMARK   18  A    between atoms: _34  and  _37
REMARK   19  A    between atoms: _37  and  _38
REMARK   20  A    between atoms: _38  and  _39
REMARK   21  A    between atoms: _44  and  _46
REMARK   22  A    between atoms: _46  and  _47
REMARK   23  A    between atoms: _49  and  _51
REMARK   24  A    between atoms: _51  and  _52
REMARK   25  A    between atoms: _51  and  _54
REMARK   26  A    between atoms: _54  and  _55
REMARK   27  A    between atoms: _60  and  _61
REMARK   28  A    between atoms: _63  and  _65
REMARK   29  A    between atoms: _65  and  _66
REMARK   30  A    between atoms: _65  and  _68
REMARK   31  A    between atoms: _68  and  _69
REMARK   32  A    between atoms: _72  and  _74
REMARK   33  A    between atoms: _74  and  _75
REMARK   34  A    between atoms: _74  and  _77
REMARK   35  A    between atoms: _80  and  _82
REMARK   36  A    between atoms: _82  and  _83
REMARK   37  A    between atoms: _82  and  _85
REMARK   38  A    between atoms: _85  and  _86
REMARK   39  A    between atoms: _89  and  _91
REMARK   40  A    between atoms: _91  and  _92
REMARK   41  A    between atoms: _91  and  _94
REMARK   42  A    between atoms: _94  and  _95
REMARK   43  A    between atoms: _98  and  _100
REMARK   44  A    between atoms: _100  and  _101
REMARK   45  A    between atoms: _103  and  _105
REMARK   46  A    between atoms: _105  and  _106
REMARK   47  A    between atoms: _105  and  _108
REMARK   48  A    between atoms: _108  and  _109
REMARK   49  A    between atoms: _111  and  _113
REMARK   50  A    between atoms: _113  and  _114
REMARK   51  A    between atoms: _113  and  _116
REMARK   52  A    between atoms: _116  and  _117
REMARK   53  A    between atoms: _119  and  _121
REMARK   54  A    between atoms: _121  and  _122
REMARK   55  A    between atoms: _121  and  _124
REMARK   56  A    between atoms: _124  and  _125
REMARK   57  A    between atoms: _130  and  _132
REMARK   58  A    between atoms: _132  and  _133
REMARK   59  A    between atoms: _132  and  _135
REMARK   60  A    between atoms: _135  and  _136
REMARK   61  A    between atoms: _141  and  _142
REMARK   62  A    between atoms: _144  and  _146
REMARK   63  A    between atoms: _146  and  _147
REMARK   64  A    between atoms: _146  and  _149
REMARK   65  A    between atoms: _153  and  _154
REMARK   66  A    between atoms: _159  and  _161
REMARK   67  A    between atoms: _161  and  _162
REMARK   68  A    between atoms: _161  and  _164
REMARK   69  A    between atoms: _164  and  _165
REMARK   70  A    between atoms: _170  and  _171
REMARK   71  A    between atoms: _173  and  _175
REMARK   72  A    between atoms: _175  and  _176
REMARK   73  A    between atoms: _175  and  _178
REMARK   74  A    between atoms: _178  and  _179
REMARK   75  A    between atoms: _182  and  _184
REMARK   76  A    between atoms: _184  and  _185
REMARK   77  A    between atoms: _184  and  _187
REMARK   78  A    between atoms: _187  and  _188
REMARK   79  A    between atoms: _188  and  _189
REMARK   80  A    between atoms: _194  and  _196
REMARK   81  A    between atoms: _196  and  _197
REMARK   82  A    between atoms: _199  and  _201
REMARK   83  A    between atoms: _201  and  _202
REMARK   84  A    between atoms: _201  and  _204
REMARK   85  A    between atoms: _204  and  _205
REMARK   86  A    between atoms: _205  and  _206
REMARK   87  A    between atoms: _206  and  _207
REMARK   88  A    between atoms: _207  and  _208
REMARK   89  A    between atoms: _212  and  _214
REMARK   90  A    between atoms: _214  and  _215
REMARK   91  A    between atoms: _214  and  _217
REMARK   92  A    between atoms: _217  and  _218
REMARK   93  A    between atoms: _228  and  _230
REMARK   94  A    between atoms: _230  and  _231
REMARK   95  A    between atoms: _230  and  _233
REMARK   96  A    between atoms: _233  and  _234
REMARK   97  A    between atoms: _237  and  _239
REMARK   98  A    between atoms: _239  and  _240
REMARK   99  A    between atoms: _239  and  _242
REMARK  100  A    between atoms: _242  and  _243
REMARK  101  A    between atoms: _243  and  _244
REMARK  102  A    between atoms: _244  and  _245
REMARK  103  A    between atoms: _245  and  _246
REMARK  104  A    between atoms: _250  and  _252
REMARK  105  A    between atoms: _252  and  _253
REMARK  106  A    between atoms: _252  and  _255
REMARK  107  A    between atoms: _255  and  _256
REMARK  108  A    between atoms: _262  and  _264
REMARK  109  A    between atoms: _264  and  _265
REMARK  110  A    between atoms: _264  and  _267
REMARK  111  A    between atoms: _267  and  _268
REMARK  112  A    between atoms: _274  and  _276
REMARK  113  A    between atoms: _276  and  _277
REMARK  114  A    between atoms: _276  and  _279
REMARK  115  A    between atoms: _279  and  _280
REMARK  116  A    between atoms: _283  and  _285
REMARK  117  A    between atoms: _285  and  _286
REMARK  118  A    between atoms: _285  and  _288
REMARK  119  A    between atoms: _288  and  _289
REMARK  120  A    between atoms: _291  and  _293
REMARK  121  A    between atoms: _293  and  _294
REMARK  122  A    between atoms: _293  and  _296
REMARK  123  A    between atoms: _296  and  _297
REMARK  124  A    between atoms: _307  and  _309
REMARK  125  A    between atoms: _309  and  _310
REMARK  126  A    between atoms: _312  and  _314
REMARK  127  A    between atoms: _314  and  _315
REMARK  128  A    between atoms: _314  and  _317
REMARK  129  A    between atoms: _317  and  _318
REMARK  130  A    between atoms: _321  and  _323
REMARK  131  A    between atoms: _323  and  _324
REMARK  132  A    between atoms: _323  and  _326
REMARK  133  A    between atoms: _326  and  _327
REMARK  134  A    between atoms: _330  and  _332
REMARK  135  A    between atoms: _332  and  _333
REMARK  136  A    between atoms: _332  and  _335
REMARK  137  A    between atoms: _335  and  _336
REMARK  138  A    between atoms: _339  and  _341
REMARK  139  A    between atoms: _341  and  _342
REMARK  140  A    between atoms: _345  and  _347
REMARK  141  A    between atoms: _347  and  _348
REMARK  142  A    between atoms: _347  and  _350
REMARK  143  A    between atoms: _350  and  _351
REMARK  144  A    between atoms: _356  and  _357
REMARK  145  A    between atoms: _359  and  _361
REMARK  146  A    between atoms: _361  and  _362
REMARK  147  A    between atoms: _361  and  _364
REMARK  148  A    between atoms: _364  and  _365
REMARK  149  A    between atoms: _365  and  _366
REMARK  150  A    between atoms: _369  and  _371
REMARK  151  A    between atoms: _371  and  _372
REMARK  152  A    between atoms: _371  and  _374
REMARK  153  A    between atoms: _374  and  _375
REMARK  154  A    between atoms: _378  and  _380
REMARK  155  A    between atoms: _380  and  _381
REMARK  156  A    between atoms: _384  and  _386
REMARK  157  A    between atoms: _386  and  _387
REMARK  158  A    between atoms: _386  and  _389
REMARK  159  A    between atoms: _389  and  _390
REMARK  160  A    between atoms: _390  and  _391
REMARK  161  A    between atoms: _391  and  _392
REMARK  162  A    between atoms: _401  and  _403
REMARK  163  A    between atoms: _403  and  _404
REMARK  164  A    between atoms: _403  and  _406
REMARK  165  A    between atoms: _406  and  _407
REMARK  166  A    between atoms: _410  and  _412
REMARK  167  A    between atoms: _412  and  _413
REMARK  168  A    between atoms: _412  and  _415
REMARK  169  A    between atoms: _415  and  _416
REMARK  170  A    between atoms: _426  and  _428
REMARK  171  A    between atoms: _428  and  _429
REMARK  172  A    between atoms: _428  and  _431
REMARK  173  A    between atoms: _431  and  _432
REMARK  174  A    between atoms: _437  and  _438
REMARK  175  A    between atoms: _440  and  _442
REMARK  176  A    between atoms: _442  and  _443
REMARK  177  A    between atoms: _442  and  _445
REMARK  178  A    between atoms: _445  and  _446
REMARK  179  A    between atoms: _451  and  _452
REMARK  180  A    between atoms: _454  and  _456
REMARK  181  A    between atoms: _456  and  _457
REMARK  182  A    between atoms: _456  and  _459
REMARK  183  A    between atoms: _459  and  _460
REMARK  184  A    between atoms: _460  and  _461
REMARK  185  A    between atoms: _461  and  _462
REMARK  186  A    between atoms: _462  and  _463
REMARK  187  A    between atoms: _467  and  _469
REMARK  188  A    between atoms: _469  and  _470
REMARK  189  A    between atoms: _469  and  _472
REMARK  190  A    between atoms: _472  and  _473
REMARK  191  A    between atoms: _476  and  _478
REMARK  192  A    between atoms: _478  and  _479
REMARK  193  A    between atoms: _478  and  _481
REMARK  194  A    between atoms: _484  and  _486
REMARK  195  A    between atoms: _486  and  _487
REMARK  196  A    between atoms: _486  and  _489
REMARK  197  A    between atoms: _489  and  _490
REMARK  198  A    between atoms: _493  and  _495
REMARK  199  A    between atoms: _495  and  _496
REMARK  200  A    between atoms: _495  and  _498
REMARK  201  A    between atoms: _498  and  _499
REMARK  202  A    between atoms: _501  and  _503
REMARK  203  A    between atoms: _503  and  _504
REMARK  204  A    between atoms: _506  and  _508
REMARK  205  A    between atoms: _508  and  _509
REMARK  206  A    between atoms: _508  and  _511
REMARK  207  A    between atoms: _511  and  _512
REMARK  208  A    between atoms: _515  and  _517
REMARK  209  A    between atoms: _517  and  _518
REMARK  210  A    between atoms: _517  and  _520
REMARK  211  A    between atoms: _520  and  _521
REMARK  212  A    between atoms: _524  and  _526
REMARK  213  A    between atoms: _526  and  _527
REMARK  214  A    between atoms: _526  and  _529
REMARK  215  A    between atoms: _529  and  _530
REMARK  216  A    between atoms: _535  and  _537
REMARK  217  A    between atoms: _537  and  _538
REMARK  218  A    between atoms: _537  and  _540
REMARK  219  A    between atoms: _540  and  _541
REMARK  220  A    between atoms: _544  and  _546
REMARK  221  A    between atoms: _546  and  _547
REMARK  222  A    between atoms: _546  and  _549
REMARK  223  A    between atoms: _549  and  _550
REMARK  224  A    between atoms: _550  and  _551
REMARK  225  A    between atoms: _551  and  _552
REMARK  226  A    between atoms: _561  and  _563
REMARK  227  A    between atoms: _563  and  _564
REMARK  228  A    between atoms: _563  and  _566
REMARK  229  A    between atoms: _566  and  _567
REMARK  230  A    between atoms: _570  and  _572
REMARK  231  A    between atoms: _572  and  _573
REMARK  232  A    between atoms: _572  and  _575
REMARK  233  A    between atoms: _575  and  _576
REMARK  234  A    between atoms: _579  and  _581
REMARK  235  A    between atoms: _581  and  _582
REMARK  236  A    between atoms: _584  and  _586
REMARK  237  A    between atoms: _586  and  _587
REMARK  238  A    between atoms: _586  and  _589
REMARK  239  A    between atoms: _589  and  _590
REMARK  240  A    between atoms: _590  and  _591
REMARK  241  A    between atoms: _591  and  _592
REMARK  242  A    between atoms: _601  and  _603
REMARK  243  A    between atoms: _603  and  _604
REMARK  244  A    between atoms: _603  and  _606
REMARK  245  A    between atoms: _606  and  _607
REMARK  246  A    between atoms: _613  and  _615
REMARK  247  A    between atoms: _615  and  _616
REMARK  248  A    between atoms: _619  and  _621
REMARK  249  A    between atoms: _621  and  _622
REMARK  250  A    between atoms: _621  and  _624
REMARK  251  A    between atoms: _624  and  _625
REMARK  252  A    between atoms: _628  and  _630
REMARK  253  A    between atoms: _630  and  _631
REMARK  254  A    between atoms: _630  and  _633
REMARK  255  A    between atoms: _633  and  _634
REMARK  256  A    between atoms: _636  and  _638
REMARK  257  A    between atoms: _638  and  _639
REMARK  258  A    between atoms: _638  and  _641
REMARK  259  A    between atoms: _641  and  _642
REMARK  260  A    between atoms: _642  and  _643
REMARK  261  A    between atoms: _648  and  _650
REMARK  262  A    between atoms: _650  and  _651
REMARK  263  A    between atoms: _650  and  _653
REMARK  264  A    between atoms: _653  and  _654
REMARK  265  A    between atoms: _656  and  _658
REMARK  266  A    between atoms: _658  and  _659
REMARK  267  A    between atoms: _658  and  _661
REMARK  268  A    between atoms: _661  and  _662
REMARK  269  A    between atoms: _665  and  _667
REMARK  270  A    between atoms: _667  and  _668
REMARK  271  A    between atoms: _667  and  _670
REMARK  272  A    between atoms: _670  and  _671
REMARK  273  A    between atoms: _674  and  _676
REMARK  274  A    between atoms: _676  and  _677
REMARK  275  A    between atoms: _676  and  _679
REMARK  276  A    between atoms: _682  and  _684
REMARK  277  A    between atoms: _684  and  _685
REMARK  278  A    between atoms: _684  and  _687
REMARK  279  A    between atoms: _687  and  _688
REMARK  280  A    between atoms: _688  and  _689
REMARK  281  A    between atoms: _691  and  _693
REMARK  282  A    between atoms: _693  and  _694
REMARK  283  A    between atoms: _696  and  _698
REMARK  284  A    between atoms: _698  and  _699
REMARK  285  A    between atoms: _702  and  _704
REMARK  286  A    between atoms: _704  and  _705
REMARK  287  A    between atoms: _704  and  _707
REMARK  288  A    between atoms: _710  and  _712
REMARK  289  A    between atoms: _712  and  _713
REMARK  290  A    between atoms: _712  and  _715
REMARK  291  A    between atoms: _715  and  _716
REMARK  292  A    between atoms: _716  and  _717
REMARK  293  A    between atoms: _719  and  _721
REMARK  294  A    between atoms: _721  and  _722
REMARK  295  A    between atoms: _721  and  _724
REMARK  296  A    between atoms: _724  and  _725
REMARK  297  A    between atoms: _725  and  _726
REMARK                            x       y       z     vdW  Elec       q    Type
REMARK                         _______ _______ _______ _____ _____    ______ ____
ROOT
ATOM      1  NE  ARG A   1       9.109  -0.820  31.819  0.00  0.00    -0.265 N 
ATOM      2  CZ  ARG A   1       8.909  -1.749  32.748  0.00  0.00    +0.342 C 
ATOM      3  NH2 ARG A   1       8.604  -1.386  33.986  0.00  0.00    -0.292 N 
ATOM      4 HH21 ARG A   1       8.447  -2.110  34.716  0.00  0.00    +0.255 HD
ATOM      5 HH22 ARG A   1       8.522  -0.378  34.227  0.00  0.00    +0.255 HD
ATOM      6  NH1 ARG A   1       9.016  -3.037  32.441  0.00  0.00    -0.292 N 
ATOM      7 HH11 ARG A   1       8.859  -3.760  33.171  0.00  0.00    +0.255 HD
ATOM      8 HH12 ARG A   1       9.257  -3.322  31.470  0.00  0.00    +0.255 HD
ATOM      9  HE  ARG A   1       9.016   0.178  32.096  0.00  0.00    +0.259 HD
ENDROOT
BRANCH   1  10
ATOM     10  CD  ARG A   1       9.450  -1.118  30.440  0.00  0.00    +0.174 C 
BRANCH  10  11
ATOM     11  CG  ARG A   1      10.356  -0.056  29.901  0.00  0.00    +0.045 C 
BRANCH  11  12
ATOM     12  CB  ARG A   1      11.422  -0.702  29.095  0.00  0.00    +0.029 C 
BRANCH  12  13
ATOM     13  CA  ARG A   1      12.779  -0.028  29.252  0.00  0.00    +0.133 C 
BRANCH  13  14
ATOM     14  N   ARG A   1      12.741   1.326  28.687  0.00  0.00    -0.239 NA
ATOM     15  H   ARG A   1      11.996   1.567  28.002  0.00  0.00    +0.142 HD
ENDBRANCH  13  14
BRANCH  13  16
ATOM     16  C   ARG A   1      13.848  -0.965  28.698  0.00  0.00    +0.224 C 
ATOM     17  O   ARG A   1      14.009  -1.111  27.487  0.00  0.00    -0.287 OA
ENDBRANCH  13  16
ENDBRANCH  12  13
ENDBRANCH  11  12
ENDBRANCH  10  11
ENDBRANCH   1  10
TORSDOF 6
REMARK  Name = ../refined-set-2016/2p4j/2p4j_pocket.pdb
REMARK  297 active torsions:
REMARK  status: ('A' for Active; 'I' for Inactive)
REMARK    1  A    between atoms: _1  and  _3
REMARK    2  A    between atoms: _3  and  _4
REMARK    3  A    between atoms: _6  and  _8
REMARK    4  A    between atoms: _8  and  _9
REMARK    5  A    between atoms: _8  and  _11
REMARK    6  A    between atoms: _11  and  _12
REMARK    7  A    between atoms: _12  and  _13
REMARK    8  A    between atoms: _13  and  _14
REMARK    9  A    between atoms: _14  and  _15
REMARK   10  A    between atoms: _19  and  _21
REMARK   11  A    between atoms: _21  and  _22
REMARK   12  A    between atoms: _21  and  _24
REMARK   13  A    between atoms: _24  and  _25
REMARK   14  A    between atoms: _27  and  _29
REMARK   15  A    between atoms: _29  and  _30
REMARK   16  A    between atoms: _32  and  _34
REMARK   17  A    between atoms: _34  and  _35
REMARK   18  A    between atoms: _34  and  _37
REMARK   19  A    between atoms: _37  and  _38
REMARK   20  A    between atoms: _38  and  _39
REMARK   21  A    between atoms: _44  and  _46
REMARK   22  A    between atoms: _46  and  _47
REMARK   23  A    between atoms: _49  and  _51
REMARK   24  A    between atoms: _51  and  _52
REMARK   25  A    between atoms: _51  and  _54
REMARK   26  A    between atoms: _54  and  _55
REMARK   27  A    between atoms: _60  and  _61
REMARK   28  A    between atoms: _63  and  _65
REMARK   29  A    between atoms: _65  and  _66
REMARK   30  A    between atoms: _65  and  _68
REMARK   31  A    between atoms: _68  and  _69
REMARK   32  A    between atoms: _72  and  _74
REMARK   33  A    between atoms: _74  and  _75
REMARK   34  A    between atoms: _74  and  _77
REMARK   35  A    between atoms: _80  and  _82
REMARK   36  A    between atoms: _82  and  _83
REMARK   37  A    between atoms: _82  and  _85
REMARK   38  A    between atoms: _85  and  _86
REMARK   39  A    between atoms: _89  and  _91
REMARK   40  A    between atoms: _91  and  _92
REMARK   41  A    between atoms: _91  and  _94
REMARK   42  A    between atoms: _94  and  _95
REMARK   43  A    between atoms: _98  and  _100
REMARK   44  A    between atoms: _100  and  _101
REMARK   45  A    between atoms: _103  and  _105
REMARK   46  A    between atoms: _105  and  _106
REMARK   47  A    between atoms: _105  and  _108
REMARK   48  A    between atoms: _108  and  _109
REMARK   49  A    between atoms: _111  and  _113
REMARK   50  A    between atoms: _113  and  _114
REMARK   51  A    between atoms: _113  and  _116
REMARK   52  A    between atoms: _116  and  _117
REMARK   53  A    between atoms: _119  and  _121
REMARK   54  A    between atoms: _121  and  _122
REMARK   55  A    between atoms: _121  and  _124
REMARK   56  A    between atoms: _124  and  _125
REMARK   57  A    between atoms: _130  and  _132
REMARK   58  A    between atoms: _132  and  _133
REMARK   59  A    between atoms: _132  and  _135
REMARK   60  A    between atoms: _135  and  _136
REMARK   61  A    between atoms: _141  and  _142
REMARK   62  A    between atoms: _144  and  _146
REMARK   63  A    between atoms: _146  and  _147
REMARK   64  A    between atoms: _146  and  _149
REMARK   65  A    between atoms: _153  and  _154
REMARK   66  A    between atoms: _159  and  _161
REMARK   67  A    between atoms: _161  and  _162
REMARK   68  A    between atoms: _161  and  _164
REMARK   69  A    between atoms: _164  and  _165
REMARK   70  A    between atoms: _170  and  _171
REMARK   71  A    between atoms: _173  and  _175
REMARK   72  A    between atoms: _175  and  _176
REMARK   73  A    between atoms: _175  and  _178
REMARK   74  A    between atoms: _178  and  _179
REMARK   75  A    between atoms: _182  and  _184
REMARK   76  A    between atoms: _184  and  _185
REMARK   77  A    between atoms: _184  and  _187
REMARK   78  A    between atoms: _187  and  _188
REMARK   79  A    between atoms: _188  and  _189
REMARK   80  A    between atoms: _194  and  _196
REMARK   81  A    between atoms: _196  and  _197
REMARK   82  A    between atoms: _199  and  _201
REMARK   83  A    between atoms: _201  and  _202
REMARK   84  A    between atoms: _201  and  _204
REMARK   85  A    between atoms: _204  and  _205
REMARK   86  A    between atoms: _205  and  _206
REMARK   87  A    between atoms: _206  and  _207
REMARK   88  A    between atoms: _207  and  _208
REMARK   89  A    between atoms: _212  and  _214
REMARK   90  A    between atoms: _214  and  _215
REMARK   91  A    between atoms: _214  and  _217
REMARK   92  A    between atoms: _217  and  _218
REMARK   93  A    between atoms: _228  and  _230
REMARK   94  A    between atoms: _230  and  _231
REMARK   95  A    between atoms: _230  and  _233
REMARK   96  A    between atoms: _233  and  _234
REMARK   97  A    between atoms: _237  and  _239
REMARK   98  A    between atoms: _239  and  _240
REMARK   99  A    between atoms: _239  and  _242
REMARK  100  A    between atoms: _242  and  _243
REMARK  101  A    between atoms: _243  and  _244
REMARK  102  A    between atoms: _244  and  _245
REMARK  103  A    between atoms: _245  and  _246
REMARK  104  A    between atoms: _250  and  _252
REMARK  105  A    between atoms: _252  and  _253
REMARK  106  A    between atoms: _252  and  _255
REMARK  107  A    between atoms: _255  and  _256
REMARK  108  A    between atoms: _262  and  _264
REMARK  109  A    between atoms: _264  and  _265
REMARK  110  A    between atoms: _264  and  _267
REMARK  111  A    between atoms: _267  and  _268
REMARK  112  A    between atoms: _274  and  _276
REMARK  113  A    between atoms: _276  and  _277
REMARK  114  A    between atoms: _276  and  _279
REMARK  115  A    between atoms: _279  and  _280
REMARK  116  A    between atoms: _283  and  _285
REMARK  117  A    between atoms: _285  and  _286
REMARK  118  A    between atoms: _285  and  _288
REMARK  119  A    between atoms: _288  and  _289
REMARK  120  A    between atoms: _291  and  _293
REMARK  121  A    between atoms: _293  and  _294
REMARK  122  A    between atoms: _293  and  _296
REMARK  123  A    between atoms: _296  and  _297
REMARK  124  A    between atoms: _307  and  _309
REMARK  125  A    between atoms: _309  and  _310
REMARK  126  A    between atoms: _312  and  _314
REMARK  127  A    between atoms: _314  and  _315
REMARK  128  A    between atoms: _314  and  _317
REMARK  129  A    between atoms: _317  and  _318
REMARK  130  A    between atoms: _321  and  _323
REMARK  131  A    between atoms: _323  and  _324
REMARK  132  A    between atoms: _323  and  _326
REMARK  133  A    between atoms: _326  and  _327
REMARK  134  A    between atoms: _330  and  _332
REMARK  135  A    between atoms: _332  and  _333
REMARK  136  A    between atoms: _332  and  _335
REMARK  137  A    between atoms: _335  and  _336
REMARK  138  A    between atoms: _339  and  _341
REMARK  139  A    between atoms: _341  and  _342
REMARK  140  A    between atoms: _345  and  _347
REMARK  141  A    between atoms: _347  and  _348
REMARK  142  A    between atoms: _347  and  _350
REMARK  143  A    between atoms: _350  and  _351
REMARK  144  A    between atoms: _356  and  _357
REMARK  145  A    between atoms: _359  and  _361
REMARK  146  A    between atoms: _361  and  _362
REMARK  147  A    between atoms: _361  and  _364
REMARK  148  A    between atoms: _364  and  _365
REMARK  149  A    between atoms: _365  and  _366
REMARK  150  A    between atoms: _369  and  _371
REMARK  151  A    between atoms: _371  and  _372
REMARK  152  A    between atoms: _371  and  _374
REMARK  153  A    between atoms: _374  and  _375
REMARK  154  A    between atoms: _378  and  _380
REMARK  155  A    between atoms: _380  and  _381
REMARK  156  A    between atoms: _384  and  _386
REMARK  157  A    between atoms: _386  and  _387
REMARK  158  A    between atoms: _386  and  _389
REMARK  159  A    between atoms: _389  and  _390
REMARK  160  A    between atoms: _390  and  _391
REMARK  161  A    between atoms: _391  and  _392
REMARK  162  A    between atoms: _401  and  _403
REMARK  163  A    between atoms: _403  and  _404
REMARK  164  A    between atoms: _403  and  _406
REMARK  165  A    between atoms: _406  and  _407
REMARK  166  A    between atoms: _410  and  _412
REMARK  167  A    between atoms: _412  and  _413
REMARK  168  A    between atoms: _412  and  _415
REMARK  169  A    between atoms: _415  and  _416
REMARK  170  A    between atoms: _426  and  _428
REMARK  171  A    between atoms: _428  and  _429
REMARK  172  A    between atoms: _428  and  _431
REMARK  173  A    between atoms: _431  and  _432
REMARK  174  A    between atoms: _437  and  _438
REMARK  175  A    between atoms: _440  and  _442
REMARK  176  A    between atoms: _442  and  _443
REMARK  177  A    between atoms: _442  and  _445
REMARK  178  A    between atoms: _445  and  _446
REMARK  179  A    between atoms: _451  and  _452
REMARK  180  A    between atoms: _454  and  _456
REMARK  181  A    between atoms: _456  and  _457
REMARK  182  A    between atoms: _456  and  _459
REMARK  183  A    between atoms: _459  and  _460
REMARK  184  A    between atoms: _460  and  _461
REMARK  185  A    between atoms: _461  and  _462
REMARK  186  A    between atoms: _462  and  _463
REMARK  187  A    between atoms: _467  and  _469
REMARK  188  A    between atoms: _469  and  _470
REMARK  189  A    between atoms: _469  and  _472
REMARK  190  A    between atoms: _472  and  _473
REMARK  191  A    between atoms: _476  and  _478
REMARK  192  A    between atoms: _478  and  _479
REMARK  193  A    between atoms: _478  and  _481
REMARK  194  A    between atoms: _484  and  _486
REMARK  195  A    between atoms: _486  and  _487
REMARK  196  A    between atoms: _486  and  _489
REMARK  197  A    between atoms: _489  and  _490
REMARK  198  A    between atoms: _493  and  _495
REMARK  199  A    between atoms: _495  and  _496
REMARK  200  A    between atoms: _495  and  _498
REMARK  201  A    between atoms: _498  and  _499
REMARK  202  A    between atoms: _501  and  _503
REMARK  203  A    between atoms: _503  and  _504
REMARK  204  A    between atoms: _506  and  _508
REMARK  205  A    between atoms: _508  and  _509
REMARK  206  A    between atoms: _508  and  _511
REMARK  207  A    between atoms: _511  and  _512
REMARK  208  A    between atoms: _515  and  _517
REMARK  209  A    between atoms: _517  and  _518
REMARK  210  A    between atoms: _517  and  _520
REMARK  211  A    between atoms: _520  and  _521
REMARK  212  A    between atoms: _524  and  _526
REMARK  213  A    between atoms: _526  and  _527
REMARK  214  A    between atoms: _526  and  _529
REMARK  215  A    between atoms: _529  and  _530
REMARK  216  A    between atoms: _535  and  _537
REMARK  217  A    between atoms: _537  and  _538
REMARK  218  A    between atoms: _537  and  _540
REMARK  219  A    between atoms: _540  and  _541
REMARK  220  A    between atoms: _544  and  _546
REMARK  221  A    between atoms: _546  and  _547
REMARK  222  A    between atoms: _546  and  _549
REMARK  223  A    between atoms: _549  and  _550
REMARK  224  A    between atoms: _550  and  _551
REMARK  225  A    between atoms: _551  and  _552
REMARK  226  A    between atoms: _561  and  _563
REMARK  227  A    between atoms: _563  and  _564
REMARK  228  A    between atoms: _563  and  _566
REMARK  229  A    between atoms: _566  and  _567
REMARK  230  A    between atoms: _570  and  _572
REMARK  231  A    between atoms: _572  and  _573
REMARK  232  A    between atoms: _572  and  _575
REMARK  233  A    between atoms: _575  and  _576
REMARK  234  A    between atoms: _579  and  _581
REMARK  235  A    between atoms: _581  and  _582
REMARK  236  A    between atoms: _584  and  _586
REMARK  237  A    between atoms: _586  and  _587
REMARK  238  A    between atoms: _586  and  _589
REMARK  239  A    between atoms: _589  and  _590
REMARK  240  A    between atoms: _590  and  _591
REMARK  241  A    between atoms: _591  and  _592
REMARK  242  A    between atoms: _601  and  _603
REMARK  243  A    between atoms: _603  and  _604
REMARK  244  A    between atoms: _603  and  _606
REMARK  245  A    between atoms: _606  and  _607
REMARK  246  A    between atoms: _613  and  _615
REMARK  247  A    between atoms: _615  and  _616
REMARK  248  A    between atoms: _619  and  _621
REMARK  249  A    between atoms: _621  and  _622
REMARK  250  A    between atoms: _621  and  _624
REMARK  251  A    between atoms: _624  and  _625
REMARK  252  A    between atoms: _628  and  _630
REMARK  253  A    between atoms: _630  and  _631
REMARK  254  A    between atoms: _630  and  _633
REMARK  255  A    between atoms: _633  and  _634
REMARK  256  A    between atoms: _636  and  _638
REMARK  257  A    between atoms: _638  and  _639
REMARK  258  A    between atoms: _638  and  _641
REMARK  259  A    between atoms: _641  and  _642
REMARK  260  A    between atoms: _642  and  _643
REMARK  261  A    between atoms: _648  and  _650
REMARK  262  A    between atoms: _650  and  _651
REMARK  263  A    between atoms: _650  and  _653
REMARK  264  A    between atoms: _653  and  _654
REMARK  265  A    between atoms: _656  and  _658
REMARK  266  A    between atoms: _658  and  _659
REMARK  267  A    between atoms: _658  and  _661
REMARK  268  A    between atoms: _661  and  _662
REMARK  269  A    between atoms: _665  and  _667
REMARK  270  A    between atoms: _667  and  _668
REMARK  271  A    between atoms: _667  and  _670
REMARK  272  A    between atoms: _670  and  _671
REMARK  273  A    between atoms: _674  and  _676
REMARK  274  A    between atoms: _676  and  _677
REMARK  275  A    between atoms: _676  and  _679
REMARK  276  A    between atoms: _682  and  _684
REMARK  277  A    between atoms: _684  and  _685
REMARK  278  A    between atoms: _684  and  _687
REMARK  279  A    between atoms: _687  and  _688
REMARK  280  A    between atoms: _688  and  _689
REMARK  281  A    between atoms: _691  and  _693
REMARK  282  A    between atoms: _693  and  _694
REMARK  283  A    between atoms: _696  and  _698
REMARK  284  A    between atoms: _698  and  _699
REMARK  285  A    between atoms: _702  and  _704
REMARK  286  A    between atoms: _704  and  _705
REMARK  287  A    between atoms: _704  and  _707
REMARK  288  A    between atoms: _710  and  _712
REMARK  289  A    between atoms: _712  and  _713
REMARK  290  A    between atoms: _712  and  _715
REMARK  291  A    between atoms: _715  and  _716
REMARK  292  A    between atoms: _716  and  _717
REMARK  293  A    between atoms: _719  and  _721
REMARK  294  A    between atoms: _721  and  _722
REMARK  295  A    between atoms: _721  and  _724
REMARK  296  A    between atoms: _724  and  _725
REMARK  297  A    between atoms: _725  and  _726
REMARK                            x       y       z     vdW  Elec       q    Type
REMARK                         _______ _______ _______ _____ _____    ______ ____
ROOT
ATOM      1  C   ILE A   3       4.956   5.864  25.016  0.00  0.00    +0.241 C 
ATOM      2  N   SER A   4       3.648   5.641  25.160  0.00  0.00    -0.295 N 
ATOM      3  H   SER A   4       3.229   5.661  26.112  0.00  0.00    +0.150 HD
ATOM      4  O   ILE A   3       5.523   5.861  23.929  0.00  0.00    -0.273 OA
ENDROOT
BRANCH   1   5
ATOM      5  CA  ILE A   3       5.758   6.099  26.287  0.00  0.00    +0.149 C 
BRANCH   5   8
ATOM      6  C   ALA A   2       6.833   4.112  27.162  0.00  0.00    +0.241 C 
ATOM      7  O   ALA A   2       6.141   4.120  28.185  0.00  0.00    -0.273 OA
ATOM      8  N   ILE A   3       6.751   5.048  26.221  0.00  0.00    -0.297 N 
ATOM      9  H   ILE A   3       7.415   5.024  25.421  0.00  0.00    +0.150 HD
BRANCH   6  10
ATOM     10  CA  ALA A   2       7.864   3.015  26.914  0.00  0.00    +0.149 C 
ATOM     11  CB  ALA A   2       8.206   2.315  28.203  0.00  0.00    +0.031 C 
BRANCH  10  13
ATOM     12  C   PHE A   1       9.286   3.193  24.974  0.00  0.00    +0.239 C 
ATOM     13  N   ALA A   2       9.078   3.450  26.260  0.00  0.00    -0.297 N 
ATOM     14  H   ALA A   2       9.796   3.970  26.803  0.00  0.00    +0.150 HD
ATOM     15  O   PHE A   1       8.465   2.606  24.273  0.00  0.00    -0.274 OA
BRANCH  12  16
ATOM     16  CA  PHE A   1      10.623   3.650  24.382  0.00  0.00    +0.149 C 
BRANCH  16  17
ATOM     17  N   PHE A   1      11.283   2.418  23.992  0.00  0.00    -0.238 NA
ATOM     18  H   PHE A   1      11.412   2.219  22.979  0.00  0.00    +0.142 HD
ENDBRANCH  16  17
BRANCH  16  19
ATOM     19  CB  PHE A   1      10.410   4.500  23.134  0.00  0.00    +0.053 C 
BRANCH  19  20
ATOM     20  CG  PHE A   1       9.797   5.828  23.397  0.00  0.00    -0.020 A 
ATOM     21  CD2 PHE A   1      10.402   6.729  24.284  0.00  0.00    -0.004 A 
ATOM     22  CE2 PHE A   1       9.862   8.020  24.485  0.00  0.00    -0.000 A 
ATOM     23  CZ  PHE A   1       8.705   8.409  23.792  0.00  0.00    -0.000 A 
ATOM     24  CE1 PHE A   1       8.088   7.499  22.897  0.00  0.00    -0.000 A 
ATOM     25  CD1 PHE A   1       8.641   6.217  22.710  0.00  0.00    -0.004 A 
ENDBRANCH  19  20
ENDBRANCH  16  19
ENDBRANCH  12  16
ENDBRANCH  10  13
ENDBRANCH   6  10
ENDBRANCH   5   8
BRANCH   5  26
ATOM     26  CB  ILE A   3       6.382   7.506  26.269  0.00  0.00    +0.027 C 
ATOM     27  CG2 ILE A   3       5.277   8.556  26.167  0.00  0.00    +0.002 C 
BRANCH  26  28
ATOM     28  CG1 ILE A   3       7.208   7.726  27.542  0.00  0.00    +0.002 C 
ATOM     29  CD1 ILE A   3       7.813   9.109  27.648  0.00  0.00    +0.000 C 
ENDBRANCH  26  28
ENDBRANCH   5  26
ENDBRANCH   1   5
BRANCH   2  30
ATOM     30  CA  SER A   4       2.796   5.371  24.011  0.00  0.00    +0.178 C 
BRANCH  30  31
ATOM     31  C   SER A   4       1.453   6.082  23.981  0.00  0.00    +0.243 C 
ATOM     32  O   SER A   4       1.056   6.737  24.932  0.00  0.00    -0.273 OA
ATOM     33  N   GLN A   5       0.771   5.936  22.855  0.00  0.00    -0.297 N 
ATOM     34  H   GLN A   5       1.186   5.341  22.109  0.00  0.00    +0.150 HD
BRANCH  33  35
ATOM     35  CA  GLN A   5      -0.524   6.555  22.592  0.00  0.00    +0.149 C 
BRANCH  35  36
ATOM     36  C   GLN A   5      -1.714   5.841  23.239  0.00  0.00    +0.241 C 
ATOM     37  N   SER A   6      -2.710   6.627  23.627  0.00  0.00    -0.296 N 
ATOM     38  H   SER A   6      -2.618   7.655  23.496  0.00  0.00    +0.150 HD
ATOM     39  O   GLN A   5      -1.737   4.615  23.367  0.00  0.00    -0.273 OA
BRANCH  37  40
ATOM     40  CA  SER A   6      -3.932   6.101  24.231  0.00  0.00    +0.166 C 
BRANCH  40  41
ATOM     41  CB  SER A   6      -5.180   6.825  23.709  0.00  0.00    +0.229 C 
ATOM     42  OG  SER A   6      -5.170   8.047  23.512  0.00  0.00    -0.286 OA
ENDBRANCH  40  41
BRANCH  40  43
ATOM     43  C   SER A   6      -3.874   6.227  25.758  0.00  0.00    +0.165 C 
BRANCH  43  44
ATOM     44  O   SER A   6      -5.121   5.900  26.356  0.00  0.00    -0.380 OA
ATOM     45  H   SER A   6      -5.048   5.992  27.339  0.00  0.00    +0.211 HD
ENDBRANCH  43  44
ENDBRANCH  40  43
ENDBRANCH  37  40
ENDBRANCH  35  36
BRANCH  35  46
ATOM     46  CB  GLN A   5      -0.734   6.597  21.074  0.00  0.00    +0.039 C 
BRANCH  46  47
ATOM     47  CG  GLN A   5      -1.587   7.741  20.555  0.00  0.00    +0.087 C 
BRANCH  47  48
ATOM     48  CD  GLN A   5      -1.581   7.798  19.029  0.00  0.00    +0.219 C 
ATOM     49  NE2 GLN A   5      -2.749   8.048  18.434  0.00  0.00    -0.329 N 
ATOM     50 HE21 GLN A   5      -3.606   8.185  19.007  0.00  0.00    +0.145 HD
ATOM     51 HE22 GLN A   5      -2.803   8.105  17.397  0.00  0.00    +0.145 HD
ATOM     52  OE1 GLN A   5      -0.529   7.626  18.396  0.00  0.00    -0.275 OA
ENDBRANCH  47  48
ENDBRANCH  46  47
ENDBRANCH  35  46
ENDBRANCH  33  35
ENDBRANCH  30  31
BRANCH  30  53
ATOM     53  CB  SER A   4       2.583   3.858  23.844  0.00  0.00    +0.166 C 
BRANCH  53  54
ATOM     54  OG  SER A   4       2.241   3.201  25.047  0.00  0.00    -0.380 OA
ATOM     55  H   SER A   4       2.119   2.235  24.871  0.00  0.00    +0.211 HD
ENDBRANCH  53  54
ENDBRANCH  30  53
ENDBRANCH   2  30
TORSDOF 23
REMARK  Name = ../refined-set-2016/2p4j/2p4j_pocket.pdb
REMARK  297 active torsions:
REMARK  status: ('A' for Active; 'I' for Inactive)
REMARK    1  A    between atoms: _1  and  _3
REMARK    2  A    between atoms: _3  and  _4
REMARK    3  A    between atoms: _6  and  _8
REMARK    4  A    between atoms: _8  and  _9
REMARK    5  A    between atoms: _8  and  _11
REMARK    6  A    between atoms: _11  and  _12
REMARK    7  A    between atoms: _12  and  _13
REMARK    8  A    between atoms: _13  and  _14
REMARK    9  A    between atoms: _14  and  _15
REMARK   10  A    between atoms: _19  and  _21
REMARK   11  A    between atoms: _21  and  _22
REMARK   12  A    between atoms: _21  and  _24
REMARK   13  A    between atoms: _24  and  _25
REMARK   14  A    between atoms: _27  and  _29
REMARK   15  A    between atoms: _29  and  _30
REMARK   16  A    between atoms: _32  and  _34
REMARK   17  A    between atoms: _34  and  _35
REMARK   18  A    between atoms: _34  and  _37
REMARK   19  A    between atoms: _37  and  _38
REMARK   20  A    between atoms: _38  and  _39
REMARK   21  A    between atoms: _44  and  _46
REMARK   22  A    between atoms: _46  and  _47
REMARK   23  A    between atoms: _49  and  _51
REMARK   24  A    between atoms: _51  and  _52
REMARK   25  A    between atoms: _51  and  _54
REMARK   26  A    between atoms: _54  and  _55
REMARK   27  A    between atoms: _60  and  _61
REMARK   28  A    between atoms: _63  and  _65
REMARK   29  A    between atoms: _65  and  _66
REMARK   30  A    between atoms: _65  and  _68
REMARK   31  A    between atoms: _68  and  _69
REMARK   32  A    between atoms: _72  and  _74
REMARK   33  A    between atoms: _74  and  _75
REMARK   34  A    between atoms: _74  and  _77
REMARK   35  A    between atoms: _80  and  _82
REMARK   36  A    between atoms: _82  and  _83
REMARK   37  A    between atoms: _82  and  _85
REMARK   38  A    between atoms: _85  and  _86
REMARK   39  A    between atoms: _89  and  _91
REMARK   40  A    between atoms: _91  and  _92
REMARK   41  A    between atoms: _91  and  _94
REMARK   42  A    between atoms: _94  and  _95
REMARK   43  A    between atoms: _98  and  _100
REMARK   44  A    between atoms: _100  and  _101
REMARK   45  A    between atoms: _103  and  _105
REMARK   46  A    between atoms: _105  and  _106
REMARK   47  A    between atoms: _105  and  _108
REMARK   48  A    between atoms: _108  and  _109
REMARK   49  A    between atoms: _111  and  _113
REMARK   50  A    between atoms: _113  and  _114
REMARK   51  A    between atoms: _113  and  _116
REMARK   52  A    between atoms: _116  and  _117
REMARK   53  A    between atoms: _119  and  _121
REMARK   54  A    between atoms: _121  and  _122
REMARK   55  A    between atoms: _121  and  _124
REMARK   56  A    between atoms: _124  and  _125
REMARK   57  A    between atoms: _130  and  _132
REMARK   58  A    between atoms: _132  and  _133
REMARK   59  A    between atoms: _132  and  _135
REMARK   60  A    between atoms: _135  and  _136
REMARK   61  A    between atoms: _141  and  _142
REMARK   62  A    between atoms: _144  and  _146
REMARK   63  A    between atoms: _146  and  _147
REMARK   64  A    between atoms: _146  and  _149
REMARK   65  A    between atoms: _153  and  _154
REMARK   66  A    between atoms: _159  and  _161
REMARK   67  A    between atoms: _161  and  _162
REMARK   68  A    between atoms: _161  and  _164
REMARK   69  A    between atoms: _164  and  _165
REMARK   70  A    between atoms: _170  and  _171
REMARK   71  A    between atoms: _173  and  _175
REMARK   72  A    between atoms: _175  and  _176
REMARK   73  A    between atoms: _175  and  _178
REMARK   74  A    between atoms: _178  and  _179
REMARK   75  A    between atoms: _182  and  _184
REMARK   76  A    between atoms: _184  and  _185
REMARK   77  A    between atoms: _184  and  _187
REMARK   78  A    between atoms: _187  and  _188
REMARK   79  A    between atoms: _188  and  _189
REMARK   80  A    between atoms: _194  and  _196
REMARK   81  A    between atoms: _196  and  _197
REMARK   82  A    between atoms: _199  and  _201
REMARK   83  A    between atoms: _201  and  _202
REMARK   84  A    between atoms: _201  and  _204
REMARK   85  A    between atoms: _204  and  _205
REMARK   86  A    between atoms: _205  and  _206
REMARK   87  A    between atoms: _206  and  _207
REMARK   88  A    between atoms: _207  and  _208
REMARK   89  A    between atoms: _212  and  _214
REMARK   90  A    between atoms: _214  and  _215
REMARK   91  A    between atoms: _214  and  _217
REMARK   92  A    between atoms: _217  and  _218
REMARK   93  A    between atoms: _228  and  _230
REMARK   94  A    between atoms: _230  and  _231
REMARK   95  A    between atoms: _230  and  _233
REMARK   96  A    between atoms: _233  and  _234
REMARK   97  A    between atoms: _237  and  _239
REMARK   98  A    between atoms: _239  and  _240
REMARK   99  A    between atoms: _239  and  _242
REMARK  100  A    between atoms: _242  and  _243
REMARK  101  A    between atoms: _243  and  _244
REMARK  102  A    between atoms: _244  and  _245
REMARK  103  A    between atoms: _245  and  _246
REMARK  104  A    between atoms: _250  and  _252
REMARK  105  A    between atoms: _252  and  _253
REMARK  106  A    between atoms: _252  and  _255
REMARK  107  A    between atoms: _255  and  _256
REMARK  108  A    between atoms: _262  and  _264
REMARK  109  A    between atoms: _264  and  _265
REMARK  110  A    between atoms: _264  and  _267
REMARK  111  A    between atoms: _267  and  _268
REMARK  112  A    between atoms: _274  and  _276
REMARK  113  A    between atoms: _276  and  _277
REMARK  114  A    between atoms: _276  and  _279
REMARK  115  A    between atoms: _279  and  _280
REMARK  116  A    between atoms: _283  and  _285
REMARK  117  A    between atoms: _285  and  _286
REMARK  118  A    between atoms: _285  and  _288
REMARK  119  A    between atoms: _288  and  _289
REMARK  120  A    between atoms: _291  and  _293
REMARK  121  A    between atoms: _293  and  _294
REMARK  122  A    between atoms: _293  and  _296
REMARK  123  A    between atoms: _296  and  _297
REMARK  124  A    between atoms: _307  and  _309
REMARK  125  A    between atoms: _309  and  _310
REMARK  126  A    between atoms: _312  and  _314
REMARK  127  A    between atoms: _314  and  _315
REMARK  128  A    between atoms: _314  and  _317
REMARK  129  A    between atoms: _317  and  _318
REMARK  130  A    between atoms: _321  and  _323
REMARK  131  A    between atoms: _323  and  _324
REMARK  132  A    between atoms: _323  and  _326
REMARK  133  A    between atoms: _326  and  _327
REMARK  134  A    between atoms: _330  and  _332
REMARK  135  A    between atoms: _332  and  _333
REMARK  136  A    between atoms: _332  and  _335
REMARK  137  A    between atoms: _335  and  _336
REMARK  138  A    between atoms: _339  and  _341
REMARK  139  A    between atoms: _341  and  _342
REMARK  140  A    between atoms: _345  and  _347
REMARK  141  A    between atoms: _347  and  _348
REMARK  142  A    between atoms: _347  and  _350
REMARK  143  A    between atoms: _350  and  _351
REMARK  144  A    between atoms: _356  and  _357
REMARK  145  A    between atoms: _359  and  _361
REMARK  146  A    between atoms: _361  and  _362
REMARK  147  A    between atoms: _361  and  _364
REMARK  148  A    between atoms: _364  and  _365
REMARK  149  A    between atoms: _365  and  _366
REMARK  150  A    between atoms: _369  and  _371
REMARK  151  A    between atoms: _371  and  _372
REMARK  152  A    between atoms: _371  and  _374
REMARK  153  A    between atoms: _374  and  _375
REMARK  154  A    between atoms: _378  and  _380
REMARK  155  A    between atoms: _380  and  _381
REMARK  156  A    between atoms: _384  and  _386
REMARK  157  A    between atoms: _386  and  _387
REMARK  158  A    between atoms: _386  and  _389
REMARK  159  A    between atoms: _389  and  _390
REMARK  160  A    between atoms: _390  and  _391
REMARK  161  A    between atoms: _391  and  _392
REMARK  162  A    between atoms: _401  and  _403
REMARK  163  A    between atoms: _403  and  _404
REMARK  164  A    between atoms: _403  and  _406
REMARK  165  A    between atoms: _406  and  _407
REMARK  166  A    between atoms: _410  and  _412
REMARK  167  A    between atoms: _412  and  _413
REMARK  168  A    between atoms: _412  and  _415
REMARK  169  A    between atoms: _415  and  _416
REMARK  170  A    between atoms: _426  and  _428
REMARK  171  A    between atoms: _428  and  _429
REMARK  172  A    between atoms: _428  and  _431
REMARK  173  A    between atoms: _431  and  _432
REMARK  174  A    between atoms: _437  and  _438
REMARK  175  A    between atoms: _440  and  _442
REMARK  176  A    between atoms: _442  and  _443
REMARK  177  A    between atoms: _442  and  _445
REMARK  178  A    between atoms: _445  and  _446
REMARK  179  A    between atoms: _451  and  _452
REMARK  180  A    between atoms: _454  and  _456
REMARK  181  A    between atoms: _456  and  _457
REMARK  182  A    between atoms: _456  and  _459
REMARK  183  A    between atoms: _459  and  _460
REMARK  184  A    between atoms: _460  and  _461
REMARK  185  A    between atoms: _461  and  _462
REMARK  186  A    between atoms: _462  and  _463
REMARK  187  A    between atoms: _467  and  _469
REMARK  188  A    between atoms: _469  and  _470
REMARK  189  A    between atoms: _469  and  _472
REMARK  190  A    between atoms: _472  and  _473
REMARK  191  A    between atoms: _476  and  _478
REMARK  192  A    between atoms: _478  and  _479
REMARK  193  A    between atoms: _478  and  _481
REMARK  194  A    between atoms: _484  and  _486
REMARK  195  A    between atoms: _486  and  _487
REMARK  196  A    between atoms: _486  and  _489
REMARK  197  A    between atoms: _489  and  _490
REMARK  198  A    between atoms: _493  and  _495
REMARK  199  A    between atoms: _495  and  _496
REMARK  200  A    between atoms: _495  and  _498
REMARK  201  A    between atoms: _498  and  _499
REMARK  202  A    between atoms: _501  and  _503
REMARK  203  A    between atoms: _503  and  _504
REMARK  204  A    between atoms: _506  and  _508
REMARK  205  A    between atoms: _508  and  _509
REMARK  206  A    between atoms: _508  and  _511
REMARK  207  A    between atoms: _511  and  _512
REMARK  208  A    between atoms: _515  and  _517
REMARK  209  A    between atoms: _517  and  _518
REMARK  210  A    between atoms: _517  and  _520
REMARK  211  A    between atoms: _520  and  _521
REMARK  212  A    between atoms: _524  and  _526
REMARK  213  A    between atoms: _526  and  _527
REMARK  214  A    between atoms: _526  and  _529
REMARK  215  A    between atoms: _529  and  _530
REMARK  216  A    between atoms: _535  and  _537
REMARK  217  A    between atoms: _537  and  _538
REMARK  218  A    between atoms: _537  and  _540
REMARK  219  A    between atoms: _540  and  _541
REMARK  220  A    between atoms: _544  and  _546
REMARK  221  A    between atoms: _546  and  _547
REMARK  222  A    between atoms: _546  and  _549
REMARK  223  A    between atoms: _549  and  _550
REMARK  224  A    between atoms: _550  and  _551
REMARK  225  A    between atoms: _551  and  _552
REMARK  226  A    between atoms: _561  and  _563
REMARK  227  A    between atoms: _563  and  _564
REMARK  228  A    between atoms: _563  and  _566
REMARK  229  A    between atoms: _566  and  _567
REMARK  230  A    between atoms: _570  and  _572
REMARK  231  A    between atoms: _572  and  _573
REMARK  232  A    between atoms: _572  and  _575
REMARK  233  A    between atoms: _575  and  _576
REMARK  234  A    between atoms: _579  and  _581
REMARK  235  A    between atoms: _581  and  _582
REMARK  236  A    between atoms: _584  and  _586
REMARK  237  A    between atoms: _586  and  _587
REMARK  238  A    between atoms: _586  and  _589
REMARK  239  A    between atoms: _589  and  _590
REMARK  240  A    between atoms: _590  and  _591
REMARK  241  A    between atoms: _591  and  _592
REMARK  242  A    between atoms: _601  and  _603
REMARK  243  A    between atoms: _603  and  _604
REMARK  244  A    between atoms: _603  and  _606
REMARK  245  A    between atoms: _606  and  _607
REMARK  246  A    between atoms: _613  and  _615
REMARK  247  A    between atoms: _615  and  _616
REMARK  248  A    between atoms: _619  and  _621
REMARK  249  A    between atoms: _621  and  _622
REMARK  250  A    between atoms: _621  and  _624
REMARK  251  A    between atoms: _624  and  _625
REMARK  252  A    between atoms: _628  and  _630
REMARK  253  A    between atoms: _630  and  _631
REMARK  254  A    between atoms: _630  and  _633
REMARK  255  A    between atoms: _633  and  _634
REMARK  256  A    between atoms: _636  and  _638
REMARK  257  A    between atoms: _638  and  _639
REMARK  258  A    between atoms: _638  and  _641
REMARK  259  A    between atoms: _641  and  _642
REMARK  260  A    between atoms: _642  and  _643
REMARK  261  A    between atoms: _648  and  _650
REMARK  262  A    between atoms: _650  and  _651
REMARK  263  A    between atoms: _650  and  _653
REMARK  264  A    between atoms: _653  and  _654
REMARK  265  A    between atoms: _656  and  _658
REMARK  266  A    between atoms: _658  and  _659
REMARK  267  A    between atoms: _658  and  _661
REMARK  268  A    between atoms: _661  and  _662
REMARK  269  A    between atoms: _665  and  _667
REMARK  270  A    between atoms: _667  and  _668
REMARK  271  A    between atoms: _667  and  _670
REMARK  272  A    between atoms: _670  and  _671
REMARK  273  A    between atoms: _674  and  _676
REMARK  274  A    between atoms: _676  and  _677
REMARK  275  A    between atoms: _676  and  _679
REMARK  276  A    between atoms: _682  and  _684
REMARK  277  A    between atoms: _684  and  _685
REMARK  278  A    between atoms: _684  and  _687
REMARK  279  A    between atoms: _687  and  _688
REMARK  280  A    between atoms: _688  and  _689
REMARK  281  A    between atoms: _691  and  _693
REMARK  282  A    between atoms: _693  and  _694
REMARK  283  A    between atoms: _696  and  _698
REMARK  284  A    between atoms: _698  and  _699
REMARK  285  A    between atoms: _702  and  _704
REMARK  286  A    between atoms: _704  and  _705
REMARK  287  A    between atoms: _704  and  _707
REMARK  288  A    between atoms: _710  and  _712
REMARK  289  A    between atoms: _712  and  _713
REMARK  290  A    between atoms: _712  and  _715
REMARK  291  A    between atoms: _715  and  _716
REMARK  292  A    between atoms: _716  and  _717
REMARK  293  A    between atoms: _719  and  _721
REMARK  294  A    between atoms: _721  and  _722
REMARK  295  A    between atoms: _721  and  _724
REMARK  296  A    between atoms: _724  and  _725
REMARK  297  A    between atoms: _725  and  _726
REMARK                            x       y       z     vdW  Elec       q    Type
REMARK                         _______ _______ _______ _____ _____    ______ ____
ROOT
ATOM      1  CA  THR A   1      -8.804   5.929  26.485  0.00  0.00    +0.160 C 
ENDROOT
BRANCH   1   2
ATOM      2  N   THR A   1      -7.981   6.127  25.314  0.00  0.00    -0.237 NA
ATOM      3  H   THR A   1      -6.956   5.963  25.378  0.00  0.00    +0.142 HD
ENDBRANCH   1   2
BRANCH   1   4
ATOM      4  C   THR A   1      -8.329   6.744  27.675  0.00  0.00    +0.227 C 
ATOM      5  O   THR A   1      -8.707   6.462  28.813  0.00  0.00    -0.287 OA
ENDBRANCH   1   4
BRANCH   1   6
ATOM      6  CB  THR A   1      -8.832   4.438  26.856  0.00  0.00    +0.134 C 
ATOM      7  CG2 THR A   1      -9.228   3.602  25.640  0.00  0.00    +0.034 C 
BRANCH   6   8
ATOM      8  OG1 THR A   1      -7.529   4.022  27.275  0.00  0.00    -0.383 OA
ATOM      9  HG1 THR A   1      -7.252   4.552  28.064  0.00  0.00    +0.210 HD
ENDBRANCH   6   8
ENDBRANCH   1   6
TORSDOF 4
REMARK  Name = ../refined-set-2016/2p4j/2p4j_pocket.pdb
REMARK  297 active torsions:
REMARK  status: ('A' for Active; 'I' for Inactive)
REMARK    1  A    between atoms: _1  and  _3
REMARK    2  A    between atoms: _3  and  _4
REMARK    3  A    between atoms: _6  and  _8
REMARK    4  A    between atoms: _8  and  _9
REMARK    5  A    between atoms: _8  and  _11
REMARK    6  A    between atoms: _11  and  _12
REMARK    7  A    between atoms: _12  and  _13
REMARK    8  A    between atoms: _13  and  _14
REMARK    9  A    between atoms: _14  and  _15
REMARK   10  A    between atoms: _19  and  _21
REMARK   11  A    between atoms: _21  and  _22
REMARK   12  A    between atoms: _21  and  _24
REMARK   13  A    between atoms: _24  and  _25
REMARK   14  A    between atoms: _27  and  _29
REMARK   15  A    between atoms: _29  and  _30
REMARK   16  A    between atoms: _32  and  _34
REMARK   17  A    between atoms: _34  and  _35
REMARK   18  A    between atoms: _34  and  _37
REMARK   19  A    between atoms: _37  and  _38
REMARK   20  A    between atoms: _38  and  _39
REMARK   21  A    between atoms: _44  and  _46
REMARK   22  A    between atoms: _46  and  _47
REMARK   23  A    between atoms: _49  and  _51
REMARK   24  A    between atoms: _51  and  _52
REMARK   25  A    between atoms: _51  and  _54
REMARK   26  A    between atoms: _54  and  _55
REMARK   27  A    between atoms: _60  and  _61
REMARK   28  A    between atoms: _63  and  _65
REMARK   29  A    between atoms: _65  and  _66
REMARK   30  A    between atoms: _65  and  _68
REMARK   31  A    between atoms: _68  and  _69
REMARK   32  A    between atoms: _72  and  _74
REMARK   33  A    between atoms: _74  and  _75
REMARK   34  A    between atoms: _74  and  _77
REMARK   35  A    between atoms: _80  and  _82
REMARK   36  A    between atoms: _82  and  _83
REMARK   37  A    between atoms: _82  and  _85
REMARK   38  A    between atoms: _85  and  _86
REMARK   39  A    between atoms: _89  and  _91
REMARK   40  A    between atoms: _91  and  _92
REMARK   41  A    between atoms: _91  and  _94
REMARK   42  A    between atoms: _94  and  _95
REMARK   43  A    between atoms: _98  and  _100
REMARK   44  A    between atoms: _100  and  _101
REMARK   45  A    between atoms: _103  and  _105
REMARK   46  A    between atoms: _105  and  _106
REMARK   47  A    between atoms: _105  and  _108
REMARK   48  A    between atoms: _108  and  _109
REMARK   49  A    between atoms: _111  and  _113
REMARK   50  A    between atoms: _113  and  _114
REMARK   51  A    between atoms: _113  and  _116
REMARK   52  A    between atoms: _116  and  _117
REMARK   53  A    between atoms: _119  and  _121
REMARK   54  A    between atoms: _121  and  _122
REMARK   55  A    between atoms: _121  and  _124
REMARK   56  A    between atoms: _124  and  _125
REMARK   57  A    between atoms: _130  and  _132
REMARK   58  A    between atoms: _132  and  _133
REMARK   59  A    between atoms: _132  and  _135
REMARK   60  A    between atoms: _135  and  _136
REMARK   61  A    between atoms: _141  and  _142
REMARK   62  A    between atoms: _144  and  _146
REMARK   63  A    between atoms: _146  and  _147
REMARK   64  A    between atoms: _146  and  _149
REMARK   65  A    between atoms: _153  and  _154
REMARK   66  A    between atoms: _159  and  _161
REMARK   67  A    between atoms: _161  and  _162
REMARK   68  A    between atoms: _161  and  _164
REMARK   69  A    between atoms: _164  and  _165
REMARK   70  A    between atoms: _170  and  _171
REMARK   71  A    between atoms: _173  and  _175
REMARK   72  A    between atoms: _175  and  _176
REMARK   73  A    between atoms: _175  and  _178
REMARK   74  A    between atoms: _178  and  _179
REMARK   75  A    between atoms: _182  and  _184
REMARK   76  A    between atoms: _184  and  _185
REMARK   77  A    between atoms: _184  and  _187
REMARK   78  A    between atoms: _187  and  _188
REMARK   79  A    between atoms: _188  and  _189
REMARK   80  A    between atoms: _194  and  _196
REMARK   81  A    between atoms: _196  and  _197
REMARK   82  A    between atoms: _199  and  _201
REMARK   83  A    between atoms: _201  and  _202
REMARK   84  A    between atoms: _201  and  _204
REMARK   85  A    between atoms: _204  and  _205
REMARK   86  A    between atoms: _205  and  _206
REMARK   87  A    between atoms: _206  and  _207
REMARK   88  A    between atoms: _207  and  _208
REMARK   89  A    between atoms: _212  and  _214
REMARK   90  A    between atoms: _214  and  _215
REMARK   91  A    between atoms: _214  and  _217
REMARK   92  A    between atoms: _217  and  _218
REMARK   93  A    between atoms: _228  and  _230
REMARK   94  A    between atoms: _230  and  _231
REMARK   95  A    between atoms: _230  and  _233
REMARK   96  A    between atoms: _233  and  _234
REMARK   97  A    between atoms: _237  and  _239
REMARK   98  A    between atoms: _239  and  _240
REMARK   99  A    between atoms: _239  and  _242
REMARK  100  A    between atoms: _242  and  _243
REMARK  101  A    between atoms: _243  and  _244
REMARK  102  A    between atoms: _244  and  _245
REMARK  103  A    between atoms: _245  and  _246
REMARK  104  A    between atoms: _250  and  _252
REMARK  105  A    between atoms: _252  and  _253
REMARK  106  A    between atoms: _252  and  _255
REMARK  107  A    between atoms: _255  and  _256
REMARK  108  A    between atoms: _262  and  _264
REMARK  109  A    between atoms: _264  and  _265
REMARK  110  A    between atoms: _264  and  _267
REMARK  111  A    between atoms: _267  and  _268
REMARK  112  A    between atoms: _274  and  _276
REMARK  113  A    between atoms: _276  and  _277
REMARK  114  A    between atoms: _276  and  _279
REMARK  115  A    between atoms: _279  and  _280
REMARK  116  A    between atoms: _283  and  _285
REMARK  117  A    between atoms: _285  and  _286
REMARK  118  A    between atoms: _285  and  _288
REMARK  119  A    between atoms: _288  and  _289
REMARK  120  A    between atoms: _291  and  _293
REMARK  121  A    between atoms: _293  and  _294
REMARK  122  A    between atoms: _293  and  _296
REMARK  123  A    between atoms: _296  and  _297
REMARK  124  A    between atoms: _307  and  _309
REMARK  125  A    between atoms: _309  and  _310
REMARK  126  A    between atoms: _312  and  _314
REMARK  127  A    between atoms: _314  and  _315
REMARK  128  A    between atoms: _314  and  _317
REMARK  129  A    between atoms: _317  and  _318
REMARK  130  A    between atoms: _321  and  _323
REMARK  131  A    between atoms: _323  and  _324
REMARK  132  A    between atoms: _323  and  _326
REMARK  133  A    between atoms: _326  and  _327
REMARK  134  A    between atoms: _330  and  _332
REMARK  135  A    between atoms: _332  and  _333
REMARK  136  A    between atoms: _332  and  _335
REMARK  137  A    between atoms: _335  and  _336
REMARK  138  A    between atoms: _339  and  _341
REMARK  139  A    between atoms: _341  and  _342
REMARK  140  A    between atoms: _345  and  _347
REMARK  141  A    between atoms: _347  and  _348
REMARK  142  A    between atoms: _347  and  _350
REMARK  143  A    between atoms: _350  and  _351
REMARK  144  A    between atoms: _356  and  _357
REMARK  145  A    between atoms: _359  and  _361
REMARK  146  A    between atoms: _361  and  _362
REMARK  147  A    between atoms: _361  and  _364
REMARK  148  A    between atoms: _364  and  _365
REMARK  149  A    between atoms: _365  and  _366
REMARK  150  A    between atoms: _369  and  _371
REMARK  151  A    between atoms: _371  and  _372
REMARK  152  A    between atoms: _371  and  _374
REMARK  153  A    between atoms: _374  and  _375
REMARK  154  A    between atoms: _378  and  _380
REMARK  155  A    between atoms: _380  and  _381
REMARK  156  A    between atoms: _384  and  _386
REMARK  157  A    between atoms: _386  and  _387
REMARK  158  A    between atoms: _386  and  _389
REMARK  159  A    between atoms: _389  and  _390
REMARK  160  A    between atoms: _390  and  _391
REMARK  161  A    between atoms: _391  and  _392
REMARK  162  A    between atoms: _401  and  _403
REMARK  163  A    between atoms: _403  and  _404
REMARK  164  A    between atoms: _403  and  _406
REMARK  165  A    between atoms: _406  and  _407
REMARK  166  A    between atoms: _410  and  _412
REMARK  167  A    between atoms: _412  and  _413
REMARK  168  A    between atoms: _412  and  _415
REMARK  169  A    between atoms: _415  and  _416
REMARK  170  A    between atoms: _426  and  _428
REMARK  171  A    between atoms: _428  and  _429
REMARK  172  A    between atoms: _428  and  _431
REMARK  173  A    between atoms: _431  and  _432
REMARK  174  A    between atoms: _437  and  _438
REMARK  175  A    between atoms: _440  and  _442
REMARK  176  A    between atoms: _442  and  _443
REMARK  177  A    between atoms: _442  and  _445
REMARK  178  A    between atoms: _445  and  _446
REMARK  179  A    between atoms: _451  and  _452
REMARK  180  A    between atoms: _454  and  _456
REMARK  181  A    between atoms: _456  and  _457
REMARK  182  A    between atoms: _456  and  _459
REMARK  183  A    between atoms: _459  and  _460
REMARK  184  A    between atoms: _460  and  _461
REMARK  185  A    between atoms: _461  and  _462
REMARK  186  A    between atoms: _462  and  _463
REMARK  187  A    between atoms: _467  and  _469
REMARK  188  A    between atoms: _469  and  _470
REMARK  189  A    between atoms: _469  and  _472
REMARK  190  A    between atoms: _472  and  _473
REMARK  191  A    between atoms: _476  and  _478
REMARK  192  A    between atoms: _478  and  _479
REMARK  193  A    between atoms: _478  and  _481
REMARK  194  A    between atoms: _484  and  _486
REMARK  195  A    between atoms: _486  and  _487
REMARK  196  A    between atoms: _486  and  _489
REMARK  197  A    between atoms: _489  and  _490
REMARK  198  A    between atoms: _493  and  _495
REMARK  199  A    between atoms: _495  and  _496
REMARK  200  A    between atoms: _495  and  _498
REMARK  201  A    between atoms: _498  and  _499
REMARK  202  A    between atoms: _501  and  _503
REMARK  203  A    between atoms: _503  and  _504
REMARK  204  A    between atoms: _506  and  _508
REMARK  205  A    between atoms: _508  and  _509
REMARK  206  A    between atoms: _508  and  _511
REMARK  207  A    between atoms: _511  and  _512
REMARK  208  A    between atoms: _515  and  _517
REMARK  209  A    between atoms: _517  and  _518
REMARK  210  A    between atoms: _517  and  _520
REMARK  211  A    between atoms: _520  and  _521
REMARK  212  A    between atoms: _524  and  _526
REMARK  213  A    between atoms: _526  and  _527
REMARK  214  A    between atoms: _526  and  _529
REMARK  215  A    between atoms: _529  and  _530
REMARK  216  A    between atoms: _535  and  _537
REMARK  217  A    between atoms: _537  and  _538
REMARK  218  A    between atoms: _537  and  _540
REMARK  219  A    between atoms: _540  and  _541
REMARK  220  A    between atoms: _544  and  _546
REMARK  221  A    between atoms: _546  and  _547
REMARK  222  A    between atoms: _546  and  _549
REMARK  223  A    between atoms: _549  and  _550
REMARK  224  A    between atoms: _550  and  _551
REMARK  225  A    between atoms: _551  and  _552
REMARK  226  A    between atoms: _561  and  _563
REMARK  227  A    between atoms: _563  and  _564
REMARK  228  A    between atoms: _563  and  _566
REMARK  229  A    between atoms: _566  and  _567
REMARK  230  A    between atoms: _570  and  _572
REMARK  231  A    between atoms: _572  and  _573
REMARK  232  A    between atoms: _572  and  _575
REMARK  233  A    between atoms: _575  and  _576
REMARK  234  A    between atoms: _579  and  _581
REMARK  235  A    between atoms: _581  and  _582
REMARK  236  A    between atoms: _584  and  _586
REMARK  237  A    between atoms: _586  and  _587
REMARK  238  A    between atoms: _586  and  _589
REMARK  239  A    between atoms: _589  and  _590
REMARK  240  A    between atoms: _590  and  _591
REMARK  241  A    between atoms: _591  and  _592
REMARK  242  A    between atoms: _601  and  _603
REMARK  243  A    between atoms: _603  and  _604
REMARK  244  A    between atoms: _603  and  _606
REMARK  245  A    between atoms: _606  and  _607
REMARK  246  A    between atoms: _613  and  _615
REMARK  247  A    between atoms: _615  and  _616
REMARK  248  A    between atoms: _619  and  _621
REMARK  249  A    between atoms: _621  and  _622
REMARK  250  A    between atoms: _621  and  _624
REMARK  251  A    between atoms: _624  and  _625
REMARK  252  A    between atoms: _628  and  _630
REMARK  253  A    between atoms: _630  and  _631
REMARK  254  A    between atoms: _630  and  _633
REMARK  255  A    between atoms: _633  and  _634
REMARK  256  A    between atoms: _636  and  _638
REMARK  257  A    between atoms: _638  and  _639
REMARK  258  A    between atoms: _638  and  _641
REMARK  259  A    between atoms: _641  and  _642
REMARK  260  A    between atoms: _642  and  _643
REMARK  261  A    between atoms: _648  and  _650
REMARK  262  A    between atoms: _650  and  _651
REMARK  263  A    between atoms: _650  and  _653
REMARK  264  A    between atoms: _653  and  _654
REMARK  265  A    between atoms: _656  and  _658
REMARK  266  A    between atoms: _658  and  _659
REMARK  267  A    between atoms: _658  and  _661
REMARK  268  A    between atoms: _661  and  _662
REMARK  269  A    between atoms: _665  and  _667
REMARK  270  A    between atoms: _667  and  _668
REMARK  271  A    between atoms: _667  and  _670
REMARK  272  A    between atoms: _670  and  _671
REMARK  273  A    between atoms: _674  and  _676
REMARK  274  A    between atoms: _676  and  _677
REMARK  275  A    between atoms: _676  and  _679
REMARK  276  A    between atoms: _682  and  _684
REMARK  277  A    between atoms: _684  and  _685
REMARK  278  A    between atoms: _684  and  _687
REMARK  279  A    between atoms: _687  and  _688
REMARK  280  A    between atoms: _688  and  _689
REMARK  281  A    between atoms: _691  and  _693
REMARK  282  A    between atoms: _693  and  _694
REMARK  283  A    between atoms: _696  and  _698
REMARK  284  A    between atoms: _698  and  _699
REMARK  285  A    between atoms: _702  and  _704
REMARK  286  A    between atoms: _704  and  _705
REMARK  287  A    between atoms: _704  and  _707
REMARK  288  A    between atoms: _710  and  _712
REMARK  289  A    between atoms: _712  and  _713
REMARK  290  A    between atoms: _712  and  _715
REMARK  291  A    between atoms: _715  and  _716
REMARK  292  A    between atoms: _716  and  _717
REMARK  293  A    between atoms: _719  and  _721
REMARK  294  A    between atoms: _721  and  _722
REMARK  295  A    between atoms: _721  and  _724
REMARK  296  A    between atoms: _724  and  _725
REMARK  297  A    between atoms: _725  and  _726
REMARK                            x       y       z     vdW  Elec       q    Type
REMARK                         _______ _______ _______ _____ _____    ______ ____
ROOT
ATOM      1  CA  MET A   3       0.319   6.036  34.580  0.00  0.00    +0.149 C 
ENDROOT
BRANCH   1   3
ATOM      2  C   VAL A   2      -1.010   5.780  32.575  0.00  0.00    +0.241 C 
ATOM      3  N   MET A   3      -0.962   5.969  33.887  0.00  0.00    -0.297 N 
ATOM      4  H   MET A   3      -1.846   6.070  34.426  0.00  0.00    +0.150 HD
ATOM      5  O   VAL A   2       0.006   5.715  31.880  0.00  0.00    -0.273 OA
BRANCH   2   6
ATOM      6  CA  VAL A   2      -2.404   5.685  31.950  0.00  0.00    +0.148 C 
BRANCH   6   9
ATOM      7  C   THR A   1      -3.632   7.663  31.265  0.00  0.00    +0.241 C 
ATOM      8  O   THR A   1      -4.466   7.525  32.163  0.00  0.00    -0.274 OA
ATOM      9  N   VAL A   2      -2.624   6.819  31.064  0.00  0.00    -0.297 N 
ATOM     10  H   VAL A   2      -1.982   6.972  30.260  0.00  0.00    +0.150 HD
BRANCH   7  11
ATOM     11  CA  THR A   1      -3.719   8.843  30.317  0.00  0.00    +0.172 C 
BRANCH  11  12
ATOM     12  CB  THR A   1      -3.208  10.065  31.094  0.00  0.00    +0.135 C 
ATOM     13  CG2 THR A   1      -1.857   9.752  31.759  0.00  0.00    +0.034 C 
BRANCH  12  14
ATOM     14  OG1 THR A   1      -3.065  11.172  30.200  0.00  0.00    -0.383 OA
ATOM     15  HG1 THR A   1      -2.736  11.959  30.702  0.00  0.00    +0.210 HD
ENDBRANCH  12  14
ENDBRANCH  11  12
BRANCH  11  16
ATOM     16  N   THR A   1      -5.080   9.037  29.843  0.00  0.00    -0.236 NA
ATOM     17  H   THR A   1      -5.662   9.789  30.265  0.00  0.00    +0.142 HD
ENDBRANCH  11  16
ENDBRANCH   7  11
ENDBRANCH   6   9
BRANCH   6  18
ATOM     18  CB  VAL A   2      -2.514   4.333  31.214  0.00  0.00    +0.027 C 
ATOM     19  CG2 VAL A   2      -2.139   3.214  32.158  0.00  0.00    +0.002 C 
ATOM     20  CG1 VAL A   2      -3.932   4.125  30.704  0.00  0.00    +0.002 C 
ENDBRANCH   6  18
ENDBRANCH   2   6
ENDBRANCH   1   3
BRANCH   1  21
ATOM     21  C   MET A   3       0.720   4.615  34.996  0.00  0.00    +0.241 C 
ATOM     22  O   MET A   3       0.387   4.148  36.093  0.00  0.00    -0.273 OA
ATOM     23  N   GLY A   4       1.419   3.936  34.087  0.00  0.00    -0.295 N 
ATOM     24  H   GLY A   4       1.666   4.394  33.186  0.00  0.00    +0.150 HD
BRANCH  23  25
ATOM     25  CA  GLY A   4       1.840   2.577  34.330  0.00  0.00    +0.176 C 
BRANCH  25  26
ATOM     26  C   GLY A   4       3.128   2.455  35.103  0.00  0.00    +0.243 C 
ATOM     27  O   GLY A   4       3.521   3.361  35.825  0.00  0.00    -0.273 OA
ATOM     28  N   ALA A   5       3.786   1.319  34.936  0.00  0.00    -0.297 N 
ATOM     29  H   ALA A   5       3.391   0.597  34.300  0.00  0.00    +0.150 HD
BRANCH  28  30
ATOM     30  CA  ALA A   5       5.034   1.051  35.609  0.00  0.00    +0.149 C 
ATOM     31  CB  ALA A   5       5.542  -0.347  35.222  0.00  0.00    +0.031 C 
BRANCH  30  32
ATOM     32  C   ALA A   5       6.089   2.111  35.298  0.00  0.00    +0.241 C 
ATOM     33  O   ALA A   5       6.940   2.405  36.135  0.00  0.00    -0.273 OA
ATOM     34  N   VAL A   6       6.049   2.695  34.105  0.00  0.00    -0.298 N 
ATOM     35  H   VAL A   6       5.316   2.432  33.415  0.00  0.00    +0.150 HD
BRANCH  34  36
ATOM     36  CA  VAL A   6       7.041   3.706  33.774  0.00  0.00    +0.137 C 
BRANCH  36  37
ATOM     37  CB  VAL A   6       6.795   4.337  32.384  0.00  0.00    +0.026 C 
ATOM     38  CG2 VAL A   6       7.561   5.665  32.248  0.00  0.00    +0.002 C 
ATOM     39  CG1 VAL A   6       7.276   3.357  31.299  0.00  0.00    +0.002 C 
ENDBRANCH  36  37
BRANCH  36  40
ATOM     40  C   VAL A   6       7.042   4.783  34.840  0.00  0.00    +0.227 C 
ATOM     41  O   VAL A   6       8.099   5.299  35.198  0.00  0.00    -0.286 OA
ENDBRANCH  36  40
ENDBRANCH  34  36
ENDBRANCH  30  32
ENDBRANCH  28  30
ENDBRANCH  25  26
ENDBRANCH  23  25
ENDBRANCH   1  21
BRANCH   1  42
ATOM     42  CB  MET A   3       0.213   6.974  35.788  0.00  0.00    +0.041 C 
BRANCH  42  43
ATOM     43  CG  MET A   3       0.248   8.446  35.371  0.00  0.00    +0.060 C 
BRANCH  43  44
ATOM     44  SD  MET A   3      -0.526   9.564  36.521  0.00  0.00    -0.139 S 
ATOM     45  CE  MET A   3       0.650   9.546  37.787  0.00  0.00    +0.069 C 
ENDBRANCH  43  44
ENDBRANCH  42  43
ENDBRANCH   1  42
TORSDOF 19
REMARK  Name = ../refined-set-2016/2p4j/2p4j_pocket.pdb
REMARK  297 active torsions:
REMARK  status: ('A' for Active; 'I' for Inactive)
REMARK    1  A    between atoms: _1  and  _3
REMARK    2  A    between atoms: _3  and  _4
REMARK    3  A    between atoms: _6  and  _8
REMARK    4  A    between atoms: _8  and  _9
REMARK    5  A    between atoms: _8  and  _11
REMARK    6  A    between atoms: _11  and  _12
REMARK    7  A    between atoms: _12  and  _13
REMARK    8  A    between atoms: _13  and  _14
REMARK    9  A    between atoms: _14  and  _15
REMARK   10  A    between atoms: _19  and  _21
REMARK   11  A    between atoms: _21  and  _22
REMARK   12  A    between atoms: _21  and  _24
REMARK   13  A    between atoms: _24  and  _25
REMARK   14  A    between atoms: _27  and  _29
REMARK   15  A    between atoms: _29  and  _30
REMARK   16  A    between atoms: _32  and  _34
REMARK   17  A    between atoms: _34  and  _35
REMARK   18  A    between atoms: _34  and  _37
REMARK   19  A    between atoms: _37  and  _38
REMARK   20  A    between atoms: _38  and  _39
REMARK   21  A    between atoms: _44  and  _46
REMARK   22  A    between atoms: _46  and  _47
REMARK   23  A    between atoms: _49  and  _51
REMARK   24  A    between atoms: _51  and  _52
REMARK   25  A    between atoms: _51  and  _54
REMARK   26  A    between atoms: _54  and  _55
REMARK   27  A    between atoms: _60  and  _61
REMARK   28  A    between atoms: _63  and  _65
REMARK   29  A    between atoms: _65  and  _66
REMARK   30  A    between atoms: _65  and  _68
REMARK   31  A    between atoms: _68  and  _69
REMARK   32  A    between atoms: _72  and  _74
REMARK   33  A    between atoms: _74  and  _75
REMARK   34  A    between atoms: _74  and  _77
REMARK   35  A    between atoms: _80  and  _82
REMARK   36  A    between atoms: _82  and  _83
REMARK   37  A    between atoms: _82  and  _85
REMARK   38  A    between atoms: _85  and  _86
REMARK   39  A    between atoms: _89  and  _91
REMARK   40  A    between atoms: _91  and  _92
REMARK   41  A    between atoms: _91  and  _94
REMARK   42  A    between atoms: _94  and  _95
REMARK   43  A    between atoms: _98  and  _100
REMARK   44  A    between atoms: _100  and  _101
REMARK   45  A    between atoms: _103  and  _105
REMARK   46  A    between atoms: _105  and  _106
REMARK   47  A    between atoms: _105  and  _108
REMARK   48  A    between atoms: _108  and  _109
REMARK   49  A    between atoms: _111  and  _113
REMARK   50  A    between atoms: _113  and  _114
REMARK   51  A    between atoms: _113  and  _116
REMARK   52  A    between atoms: _116  and  _117
REMARK   53  A    between atoms: _119  and  _121
REMARK   54  A    between atoms: _121  and  _122
REMARK   55  A    between atoms: _121  and  _124
REMARK   56  A    between atoms: _124  and  _125
REMARK   57  A    between atoms: _130  and  _132
REMARK   58  A    between atoms: _132  and  _133
REMARK   59  A    between atoms: _132  and  _135
REMARK   60  A    between atoms: _135  and  _136
REMARK   61  A    between atoms: _141  and  _142
REMARK   62  A    between atoms: _144  and  _146
REMARK   63  A    between atoms: _146  and  _147
REMARK   64  A    between atoms: _146  and  _149
REMARK   65  A    between atoms: _153  and  _154
REMARK   66  A    between atoms: _159  and  _161
REMARK   67  A    between atoms: _161  and  _162
REMARK   68  A    between atoms: _161  and  _164
REMARK   69  A    between atoms: _164  and  _165
REMARK   70  A    between atoms: _170  and  _171
REMARK   71  A    between atoms: _173  and  _175
REMARK   72  A    between atoms: _175  and  _176
REMARK   73  A    between atoms: _175  and  _178
REMARK   74  A    between atoms: _178  and  _179
REMARK   75  A    between atoms: _182  and  _184
REMARK   76  A    between atoms: _184  and  _185
REMARK   77  A    between atoms: _184  and  _187
REMARK   78  A    between atoms: _187  and  _188
REMARK   79  A    between atoms: _188  and  _189
REMARK   80  A    between atoms: _194  and  _196
REMARK   81  A    between atoms: _196  and  _197
REMARK   82  A    between atoms: _199  and  _201
REMARK   83  A    between atoms: _201  and  _202
REMARK   84  A    between atoms: _201  and  _204
REMARK   85  A    between atoms: _204  and  _205
REMARK   86  A    between atoms: _205  and  _206
REMARK   87  A    between atoms: _206  and  _207
REMARK   88  A    between atoms: _207  and  _208
REMARK   89  A    between atoms: _212  and  _214
REMARK   90  A    between atoms: _214  and  _215
REMARK   91  A    between atoms: _214  and  _217
REMARK   92  A    between atoms: _217  and  _218
REMARK   93  A    between atoms: _228  and  _230
REMARK   94  A    between atoms: _230  and  _231
REMARK   95  A    between atoms: _230  and  _233
REMARK   96  A    between atoms: _233  and  _234
REMARK   97  A    between atoms: _237  and  _239
REMARK   98  A    between atoms: _239  and  _240
REMARK   99  A    between atoms: _239  and  _242
REMARK  100  A    between atoms: _242  and  _243
REMARK  101  A    between atoms: _243  and  _244
REMARK  102  A    between atoms: _244  and  _245
REMARK  103  A    between atoms: _245  and  _246
REMARK  104  A    between atoms: _250  and  _252
REMARK  105  A    between atoms: _252  and  _253
REMARK  106  A    between atoms: _252  and  _255
REMARK  107  A    between atoms: _255  and  _256
REMARK  108  A    between atoms: _262  and  _264
REMARK  109  A    between atoms: _264  and  _265
REMARK  110  A    between atoms: _264  and  _267
REMARK  111  A    between atoms: _267  and  _268
REMARK  112  A    between atoms: _274  and  _276
REMARK  113  A    between atoms: _276  and  _277
REMARK  114  A    between atoms: _276  and  _279
REMARK  115  A    between atoms: _279  and  _280
REMARK  116  A    between atoms: _283  and  _285
REMARK  117  A    between atoms: _285  and  _286
REMARK  118  A    between atoms: _285  and  _288
REMARK  119  A    between atoms: _288  and  _289
REMARK  120  A    between atoms: _291  and  _293
REMARK  121  A    between atoms: _293  and  _294
REMARK  122  A    between atoms: _293  and  _296
REMARK  123  A    between atoms: _296  and  _297
REMARK  124  A    between atoms: _307  and  _309
REMARK  125  A    between atoms: _309  and  _310
REMARK  126  A    between atoms: _312  and  _314
REMARK  127  A    between atoms: _314  and  _315
REMARK  128  A    between atoms: _314  and  _317
REMARK  129  A    between atoms: _317  and  _318
REMARK  130  A    between atoms: _321  and  _323
REMARK  131  A    between atoms: _323  and  _324
REMARK  132  A    between atoms: _323  and  _326
REMARK  133  A    between atoms: _326  and  _327
REMARK  134  A    between atoms: _330  and  _332
REMARK  135  A    between atoms: _332  and  _333
REMARK  136  A    between atoms: _332  and  _335
REMARK  137  A    between atoms: _335  and  _336
REMARK  138  A    between atoms: _339  and  _341
REMARK  139  A    between atoms: _341  and  _342
REMARK  140  A    between atoms: _345  and  _347
REMARK  141  A    between atoms: _347  and  _348
REMARK  142  A    between atoms: _347  and  _350
REMARK  143  A    between atoms: _350  and  _351
REMARK  144  A    between atoms: _356  and  _357
REMARK  145  A    between atoms: _359  and  _361
REMARK  146  A    between atoms: _361  and  _362
REMARK  147  A    between atoms: _361  and  _364
REMARK  148  A    between atoms: _364  and  _365
REMARK  149  A    between atoms: _365  and  _366
REMARK  150  A    between atoms: _369  and  _371
REMARK  151  A    between atoms: _371  and  _372
REMARK  152  A    between atoms: _371  and  _374
REMARK  153  A    between atoms: _374  and  _375
REMARK  154  A    between atoms: _378  and  _380
REMARK  155  A    between atoms: _380  and  _381
REMARK  156  A    between atoms: _384  and  _386
REMARK  157  A    between atoms: _386  and  _387
REMARK  158  A    between atoms: _386  and  _389
REMARK  159  A    between atoms: _389  and  _390
REMARK  160  A    between atoms: _390  and  _391
REMARK  161  A    between atoms: _391  and  _392
REMARK  162  A    between atoms: _401  and  _403
REMARK  163  A    between atoms: _403  and  _404
REMARK  164  A    between atoms: _403  and  _406
REMARK  165  A    between atoms: _406  and  _407
REMARK  166  A    between atoms: _410  and  _412
REMARK  167  A    between atoms: _412  and  _413
REMARK  168  A    between atoms: _412  and  _415
REMARK  169  A    between atoms: _415  and  _416
REMARK  170  A    between atoms: _426  and  _428
REMARK  171  A    between atoms: _428  and  _429
REMARK  172  A    between atoms: _428  and  _431
REMARK  173  A    between atoms: _431  and  _432
REMARK  174  A    between atoms: _437  and  _438
REMARK  175  A    between atoms: _440  and  _442
REMARK  176  A    between atoms: _442  and  _443
REMARK  177  A    between atoms: _442  and  _445
REMARK  178  A    between atoms: _445  and  _446
REMARK  179  A    between atoms: _451  and  _452
REMARK  180  A    between atoms: _454  and  _456
REMARK  181  A    between atoms: _456  and  _457
REMARK  182  A    between atoms: _456  and  _459
REMARK  183  A    between atoms: _459  and  _460
REMARK  184  A    between atoms: _460  and  _461
REMARK  185  A    between atoms: _461  and  _462
REMARK  186  A    between atoms: _462  and  _463
REMARK  187  A    between atoms: _467  and  _469
REMARK  188  A    between atoms: _469  and  _470
REMARK  189  A    between atoms: _469  and  _472
REMARK  190  A    between atoms: _472  and  _473
REMARK  191  A    between atoms: _476  and  _478
REMARK  192  A    between atoms: _478  and  _479
REMARK  193  A    between atoms: _478  and  _481
REMARK  194  A    between atoms: _484  and  _486
REMARK  195  A    between atoms: _486  and  _487
REMARK  196  A    between atoms: _486  and  _489
REMARK  197  A    between atoms: _489  and  _490
REMARK  198  A    between atoms: _493  and  _495
REMARK  199  A    between atoms: _495  and  _496
REMARK  200  A    between atoms: _495  and  _498
REMARK  201  A    between atoms: _498  and  _499
REMARK  202  A    between atoms: _501  and  _503
REMARK  203  A    between atoms: _503  and  _504
REMARK  204  A    between atoms: _506  and  _508
REMARK  205  A    between atoms: _508  and  _509
REMARK  206  A    between atoms: _508  and  _511
REMARK  207  A    between atoms: _511  and  _512
REMARK  208  A    between atoms: _515  and  _517
REMARK  209  A    between atoms: _517  and  _518
REMARK  210  A    between atoms: _517  and  _520
REMARK  211  A    between atoms: _520  and  _521
REMARK  212  A    between atoms: _524  and  _526
REMARK  213  A    between atoms: _526  and  _527
REMARK  214  A    between atoms: _526  and  _529
REMARK  215  A    between atoms: _529  and  _530
REMARK  216  A    between atoms: _535  and  _537
REMARK  217  A    between atoms: _537  and  _538
REMARK  218  A    between atoms: _537  and  _540
REMARK  219  A    between atoms: _540  and  _541
REMARK  220  A    between atoms: _544  and  _546
REMARK  221  A    between atoms: _546  and  _547
REMARK  222  A    between atoms: _546  and  _549
REMARK  223  A    between atoms: _549  and  _550
REMARK  224  A    between atoms: _550  and  _551
REMARK  225  A    between atoms: _551  and  _552
REMARK  226  A    between atoms: _561  and  _563
REMARK  227  A    between atoms: _563  and  _564
REMARK  228  A    between atoms: _563  and  _566
REMARK  229  A    between atoms: _566  and  _567
REMARK  230  A    between atoms: _570  and  _572
REMARK  231  A    between atoms: _572  and  _573
REMARK  232  A    between atoms: _572  and  _575
REMARK  233  A    between atoms: _575  and  _576
REMARK  234  A    between atoms: _579  and  _581
REMARK  235  A    between atoms: _581  and  _582
REMARK  236  A    between atoms: _584  and  _586
REMARK  237  A    between atoms: _586  and  _587
REMARK  238  A    between atoms: _586  and  _589
REMARK  239  A    between atoms: _589  and  _590
REMARK  240  A    between atoms: _590  and  _591
REMARK  241  A    between atoms: _591  and  _592
REMARK  242  A    between atoms: _601  and  _603
REMARK  243  A    between atoms: _603  and  _604
REMARK  244  A    between atoms: _603  and  _606
REMARK  245  A    between atoms: _606  and  _607
REMARK  246  A    between atoms: _613  and  _615
REMARK  247  A    between atoms: _615  and  _616
REMARK  248  A    between atoms: _619  and  _621
REMARK  249  A    between atoms: _621  and  _622
REMARK  250  A    between atoms: _621  and  _624
REMARK  251  A    between atoms: _624  and  _625
REMARK  252  A    between atoms: _628  and  _630
REMARK  253  A    between atoms: _630  and  _631
REMARK  254  A    between atoms: _630  and  _633
REMARK  255  A    between atoms: _633  and  _634
REMARK  256  A    between atoms: _636  and  _638
REMARK  257  A    between atoms: _638  and  _639
REMARK  258  A    between atoms: _638  and  _641
REMARK  259  A    between atoms: _641  and  _642
REMARK  260  A    between atoms: _642  and  _643
REMARK  261  A    between atoms: _648  and  _650
REMARK  262  A    between atoms: _650  and  _651
REMARK  263  A    between atoms: _650  and  _653
REMARK  264  A    between atoms: _653  and  _654
REMARK  265  A    between atoms: _656  and  _658
REMARK  266  A    between atoms: _658  and  _659
REMARK  267  A    between atoms: _658  and  _661
REMARK  268  A    between atoms: _661  and  _662
REMARK  269  A    between atoms: _665  and  _667
REMARK  270  A    between atoms: _667  and  _668
REMARK  271  A    between atoms: _667  and  _670
REMARK  272  A    between atoms: _670  and  _671
REMARK  273  A    between atoms: _674  and  _676
REMARK  274  A    between atoms: _676  and  _677
REMARK  275  A    between atoms: _676  and  _679
REMARK  276  A    between atoms: _682  and  _684
REMARK  277  A    between atoms: _684  and  _685
REMARK  278  A    between atoms: _684  and  _687
REMARK  279  A    between atoms: _687  and  _688
REMARK  280  A    between atoms: _688  and  _689
REMARK  281  A    between atoms: _691  and  _693
REMARK  282  A    between atoms: _693  and  _694
REMARK  283  A    between atoms: _696  and  _698
REMARK  284  A    between atoms: _698  and  _699
REMARK  285  A    between atoms: _702  and  _704
REMARK  286  A    between atoms: _704  and  _705
REMARK  287  A    between atoms: _704  and  _707
REMARK  288  A    between atoms: _710  and  _712
REMARK  289  A    between atoms: _712  and  _713
REMARK  290  A    between atoms: _712  and  _715
REMARK  291  A    between atoms: _715  and  _716
REMARK  292  A    between atoms: _716  and  _717
REMARK  293  A    between atoms: _719  and  _721
REMARK  294  A    between atoms: _721  and  _722
REMARK  295  A    between atoms: _721  and  _724
REMARK  296  A    between atoms: _724  and  _725
REMARK  297  A    between atoms: _725  and  _726
REMARK                            x       y       z     vdW  Elec       q    Type
REMARK                         _______ _______ _______ _____ _____    ______ ____
ROOT
ATOM      1  C   MET A   1       6.527   3.298  39.829  0.00  0.00    +0.238 C 
ATOM      2  O   MET A   1       6.798   3.187  41.019  0.00  0.00    -0.274 OA
ATOM      3  N   GLU A   2       7.392   2.987  38.875  0.00  0.00    -0.298 N 
ATOM      4  H   GLU A   2       7.124   3.103  37.877  0.00  0.00    +0.150 HD
ENDROOT
BRANCH   1   5
ATOM      5  CA  MET A   1       5.163   3.826  39.399  0.00  0.00    +0.146 C 
BRANCH   5   6
ATOM      6  N   MET A   1       5.111   4.521  38.113  0.00  0.00    -0.238 NA
ATOM      7  H   MET A   1       4.374   4.252  37.430  0.00  0.00    +0.142 HD
ENDBRANCH   5   6
BRANCH   5   8
ATOM      8  CB  MET A   1       4.129   2.691  39.428  0.00  0.00    +0.038 C 
BRANCH   8   9
ATOM      9  CG  MET A   1       2.701   3.214  39.312  0.00  0.00    +0.060 C 
BRANCH   9  10
ATOM     10  SD  MET A   1       1.409   2.065  39.820  0.00  0.00    -0.139 S 
ATOM     11  CE  MET A   1       1.769   1.993  41.586  0.00  0.00    +0.069 C 
ENDBRANCH   9  10
ENDBRANCH   8   9
ENDBRANCH   5   8
ENDBRANCH   1   5
BRANCH   3  12
ATOM     12  CA  GLU A   2       8.716   2.483  39.215  0.00  0.00    +0.137 C 
BRANCH  12  13
ATOM     13  C   GLU A   2       9.632   3.589  39.709  0.00  0.00    +0.227 C 
ATOM     14  O   GLU A   2      10.762   3.325  40.137  0.00  0.00    -0.286 OA
ENDBRANCH  12  13
BRANCH  12  15
ATOM     15  CB  GLU A   2       9.355   1.781  38.007  0.00  0.00    +0.039 C 
BRANCH  15  16
ATOM     16  CG  GLU A   2       8.750   0.411  37.689  0.00  0.00    +0.116 C 
BRANCH  16  17
ATOM     17  CD  GLU A   2       9.466  -0.293  36.568  0.00  0.00    +0.365 C 
ATOM     18  OE2 GLU A   2       9.138  -1.451  36.294  0.00  0.00    -0.246 OA
ATOM     19  OE1 GLU A   2      10.363   0.302  35.950  0.00  0.00    -0.246 OA
ENDBRANCH  16  17
ENDBRANCH  15  16
ENDBRANCH  12  15
ENDBRANCH   3  12
TORSDOF 10
REMARK  Name = ../refined-set-2016/2p4j/2p4j_pocket.pdb
REMARK  297 active torsions:
REMARK  status: ('A' for Active; 'I' for Inactive)
REMARK    1  A    between atoms: _1  and  _3
REMARK    2  A    between atoms: _3  and  _4
REMARK    3  A    between atoms: _6  and  _8
REMARK    4  A    between atoms: _8  and  _9
REMARK    5  A    between atoms: _8  and  _11
REMARK    6  A    between atoms: _11  and  _12
REMARK    7  A    between atoms: _12  and  _13
REMARK    8  A    between atoms: _13  and  _14
REMARK    9  A    between atoms: _14  and  _15
REMARK   10  A    between atoms: _19  and  _21
REMARK   11  A    between atoms: _21  and  _22
REMARK   12  A    between atoms: _21  and  _24
REMARK   13  A    between atoms: _24  and  _25
REMARK   14  A    between atoms: _27  and  _29
REMARK   15  A    between atoms: _29  and  _30
REMARK   16  A    between atoms: _32  and  _34
REMARK   17  A    between atoms: _34  and  _35
REMARK   18  A    between atoms: _34  and  _37
REMARK   19  A    between atoms: _37  and  _38
REMARK   20  A    between atoms: _38  and  _39
REMARK   21  A    between atoms: _44  and  _46
REMARK   22  A    between atoms: _46  and  _47
REMARK   23  A    between atoms: _49  and  _51
REMARK   24  A    between atoms: _51  and  _52
REMARK   25  A    between atoms: _51  and  _54
REMARK   26  A    between atoms: _54  and  _55
REMARK   27  A    between atoms: _60  and  _61
REMARK   28  A    between atoms: _63  and  _65
REMARK   29  A    between atoms: _65  and  _66
REMARK   30  A    between atoms: _65  and  _68
REMARK   31  A    between atoms: _68  and  _69
REMARK   32  A    between atoms: _72  and  _74
REMARK   33  A    between atoms: _74  and  _75
REMARK   34  A    between atoms: _74  and  _77
REMARK   35  A    between atoms: _80  and  _82
REMARK   36  A    between atoms: _82  and  _83
REMARK   37  A    between atoms: _82  and  _85
REMARK   38  A    between atoms: _85  and  _86
REMARK   39  A    between atoms: _89  and  _91
REMARK   40  A    between atoms: _91  and  _92
REMARK   41  A    between atoms: _91  and  _94
REMARK   42  A    between atoms: _94  and  _95
REMARK   43  A    between atoms: _98  and  _100
REMARK   44  A    between atoms: _100  and  _101
REMARK   45  A    between atoms: _103  and  _105
REMARK   46  A    between atoms: _105  and  _106
REMARK   47  A    between atoms: _105  and  _108
REMARK   48  A    between atoms: _108  and  _109
REMARK   49  A    between atoms: _111  and  _113
REMARK   50  A    between atoms: _113  and  _114
REMARK   51  A    between atoms: _113  and  _116
REMARK   52  A    between atoms: _116  and  _117
REMARK   53  A    between atoms: _119  and  _121
REMARK   54  A    between atoms: _121  and  _122
REMARK   55  A    between atoms: _121  and  _124
REMARK   56  A    between atoms: _124  and  _125
REMARK   57  A    between atoms: _130  and  _132
REMARK   58  A    between atoms: _132  and  _133
REMARK   59  A    between atoms: _132  and  _135
REMARK   60  A    between atoms: _135  and  _136
REMARK   61  A    between atoms: _141  and  _142
REMARK   62  A    between atoms: _144  and  _146
REMARK   63  A    between atoms: _146  and  _147
REMARK   64  A    between atoms: _146  and  _149
REMARK   65  A    between atoms: _153  and  _154
REMARK   66  A    between atoms: _159  and  _161
REMARK   67  A    between atoms: _161  and  _162
REMARK   68  A    between atoms: _161  and  _164
REMARK   69  A    between atoms: _164  and  _165
REMARK   70  A    between atoms: _170  and  _171
REMARK   71  A    between atoms: _173  and  _175
REMARK   72  A    between atoms: _175  and  _176
REMARK   73  A    between atoms: _175  and  _178
REMARK   74  A    between atoms: _178  and  _179
REMARK   75  A    between atoms: _182  and  _184
REMARK   76  A    between atoms: _184  and  _185
REMARK   77  A    between atoms: _184  and  _187
REMARK   78  A    between atoms: _187  and  _188
REMARK   79  A    between atoms: _188  and  _189
REMARK   80  A    between atoms: _194  and  _196
REMARK   81  A    between atoms: _196  and  _197
REMARK   82  A    between atoms: _199  and  _201
REMARK   83  A    between atoms: _201  and  _202
REMARK   84  A    between atoms: _201  and  _204
REMARK   85  A    between atoms: _204  and  _205
REMARK   86  A    between atoms: _205  and  _206
REMARK   87  A    between atoms: _206  and  _207
REMARK   88  A    between atoms: _207  and  _208
REMARK   89  A    between atoms: _212  and  _214
REMARK   90  A    between atoms: _214  and  _215
REMARK   91  A    between atoms: _214  and  _217
REMARK   92  A    between atoms: _217  and  _218
REMARK   93  A    between atoms: _228  and  _230
REMARK   94  A    between atoms: _230  and  _231
REMARK   95  A    between atoms: _230  and  _233
REMARK   96  A    between atoms: _233  and  _234
REMARK   97  A    between atoms: _237  and  _239
REMARK   98  A    between atoms: _239  and  _240
REMARK   99  A    between atoms: _239  and  _242
REMARK  100  A    between atoms: _242  and  _243
REMARK  101  A    between atoms: _243  and  _244
REMARK  102  A    between atoms: _244  and  _245
REMARK  103  A    between atoms: _245  and  _246
REMARK  104  A    between atoms: _250  and  _252
REMARK  105  A    between atoms: _252  and  _253
REMARK  106  A    between atoms: _252  and  _255
REMARK  107  A    between atoms: _255  and  _256
REMARK  108  A    between atoms: _262  and  _264
REMARK  109  A    between atoms: _264  and  _265
REMARK  110  A    between atoms: _264  and  _267
REMARK  111  A    between atoms: _267  and  _268
REMARK  112  A    between atoms: _274  and  _276
REMARK  113  A    between atoms: _276  and  _277
REMARK  114  A    between atoms: _276  and  _279
REMARK  115  A    between atoms: _279  and  _280
REMARK  116  A    between atoms: _283  and  _285
REMARK  117  A    between atoms: _285  and  _286
REMARK  118  A    between atoms: _285  and  _288
REMARK  119  A    between atoms: _288  and  _289
REMARK  120  A    between atoms: _291  and  _293
REMARK  121  A    between atoms: _293  and  _294
REMARK  122  A    between atoms: _293  and  _296
REMARK  123  A    between atoms: _296  and  _297
REMARK  124  A    between atoms: _307  and  _309
REMARK  125  A    between atoms: _309  and  _310
REMARK  126  A    between atoms: _312  and  _314
REMARK  127  A    between atoms: _314  and  _315
REMARK  128  A    between atoms: _314  and  _317
REMARK  129  A    between atoms: _317  and  _318
REMARK  130  A    between atoms: _321  and  _323
REMARK  131  A    between atoms: _323  and  _324
REMARK  132  A    between atoms: _323  and  _326
REMARK  133  A    between atoms: _326  and  _327
REMARK  134  A    between atoms: _330  and  _332
REMARK  135  A    between atoms: _332  and  _333
REMARK  136  A    between atoms: _332  and  _335
REMARK  137  A    between atoms: _335  and  _336
REMARK  138  A    between atoms: _339  and  _341
REMARK  139  A    between atoms: _341  and  _342
REMARK  140  A    between atoms: _345  and  _347
REMARK  141  A    between atoms: _347  and  _348
REMARK  142  A    between atoms: _347  and  _350
REMARK  143  A    between atoms: _350  and  _351
REMARK  144  A    between atoms: _356  and  _357
REMARK  145  A    between atoms: _359  and  _361
REMARK  146  A    between atoms: _361  and  _362
REMARK  147  A    between atoms: _361  and  _364
REMARK  148  A    between atoms: _364  and  _365
REMARK  149  A    between atoms: _365  and  _366
REMARK  150  A    between atoms: _369  and  _371
REMARK  151  A    between atoms: _371  and  _372
REMARK  152  A    between atoms: _371  and  _374
REMARK  153  A    between atoms: _374  and  _375
REMARK  154  A    between atoms: _378  and  _380
REMARK  155  A    between atoms: _380  and  _381
REMARK  156  A    between atoms: _384  and  _386
REMARK  157  A    between atoms: _386  and  _387
REMARK  158  A    between atoms: _386  and  _389
REMARK  159  A    between atoms: _389  and  _390
REMARK  160  A    between atoms: _390  and  _391
REMARK  161  A    between atoms: _391  and  _392
REMARK  162  A    between atoms: _401  and  _403
REMARK  163  A    between atoms: _403  and  _404
REMARK  164  A    between atoms: _403  and  _406
REMARK  165  A    between atoms: _406  and  _407
REMARK  166  A    between atoms: _410  and  _412
REMARK  167  A    between atoms: _412  and  _413
REMARK  168  A    between atoms: _412  and  _415
REMARK  169  A    between atoms: _415  and  _416
REMARK  170  A    between atoms: _426  and  _428
REMARK  171  A    between atoms: _428  and  _429
REMARK  172  A    between atoms: _428  and  _431
REMARK  173  A    between atoms: _431  and  _432
REMARK  174  A    between atoms: _437  and  _438
REMARK  175  A    between atoms: _440  and  _442
REMARK  176  A    between atoms: _442  and  _443
REMARK  177  A    between atoms: _442  and  _445
REMARK  178  A    between atoms: _445  and  _446
REMARK  179  A    between atoms: _451  and  _452
REMARK  180  A    between atoms: _454  and  _456
REMARK  181  A    between atoms: _456  and  _457
REMARK  182  A    between atoms: _456  and  _459
REMARK  183  A    between atoms: _459  and  _460
REMARK  184  A    between atoms: _460  and  _461
REMARK  185  A    between atoms: _461  and  _462
REMARK  186  A    between atoms: _462  and  _463
REMARK  187  A    between atoms: _467  and  _469
REMARK  188  A    between atoms: _469  and  _470
REMARK  189  A    between atoms: _469  and  _472
REMARK  190  A    between atoms: _472  and  _473
REMARK  191  A    between atoms: _476  and  _478
REMARK  192  A    between atoms: _478  and  _479
REMARK  193  A    between atoms: _478  and  _481
REMARK  194  A    between atoms: _484  and  _486
REMARK  195  A    between atoms: _486  and  _487
REMARK  196  A    between atoms: _486  and  _489
REMARK  197  A    between atoms: _489  and  _490
REMARK  198  A    between atoms: _493  and  _495
REMARK  199  A    between atoms: _495  and  _496
REMARK  200  A    between atoms: _495  and  _498
REMARK  201  A    between atoms: _498  and  _499
REMARK  202  A    between atoms: _501  and  _503
REMARK  203  A    between atoms: _503  and  _504
REMARK  204  A    between atoms: _506  and  _508
REMARK  205  A    between atoms: _508  and  _509
REMARK  206  A    between atoms: _508  and  _511
REMARK  207  A    between atoms: _511  and  _512
REMARK  208  A    between atoms: _515  and  _517
REMARK  209  A    between atoms: _517  and  _518
REMARK  210  A    between atoms: _517  and  _520
REMARK  211  A    between atoms: _520  and  _521
REMARK  212  A    between atoms: _524  and  _526
REMARK  213  A    between atoms: _526  and  _527
REMARK  214  A    between atoms: _526  and  _529
REMARK  215  A    between atoms: _529  and  _530
REMARK  216  A    between atoms: _535  and  _537
REMARK  217  A    between atoms: _537  and  _538
REMARK  218  A    between atoms: _537  and  _540
REMARK  219  A    between atoms: _540  and  _541
REMARK  220  A    between atoms: _544  and  _546
REMARK  221  A    between atoms: _546  and  _547
REMARK  222  A    between atoms: _546  and  _549
REMARK  223  A    between atoms: _549  and  _550
REMARK  224  A    between atoms: _550  and  _551
REMARK  225  A    between atoms: _551  and  _552
REMARK  226  A    between atoms: _561  and  _563
REMARK  227  A    between atoms: _563  and  _564
REMARK  228  A    between atoms: _563  and  _566
REMARK  229  A    between atoms: _566  and  _567
REMARK  230  A    between atoms: _570  and  _572
REMARK  231  A    between atoms: _572  and  _573
REMARK  232  A    between atoms: _572  and  _575
REMARK  233  A    between atoms: _575  and  _576
REMARK  234  A    between atoms: _579  and  _581
REMARK  235  A    between atoms: _581  and  _582
REMARK  236  A    between atoms: _584  and  _586
REMARK  237  A    between atoms: _586  and  _587
REMARK  238  A    between atoms: _586  and  _589
REMARK  239  A    between atoms: _589  and  _590
REMARK  240  A    between atoms: _590  and  _591
REMARK  241  A    between atoms: _591  and  _592
REMARK  242  A    between atoms: _601  and  _603
REMARK  243  A    between atoms: _603  and  _604
REMARK  244  A    between atoms: _603  and  _606
REMARK  245  A    between atoms: _606  and  _607
REMARK  246  A    between atoms: _613  and  _615
REMARK  247  A    between atoms: _615  and  _616
REMARK  248  A    between atoms: _619  and  _621
REMARK  249  A    between atoms: _621  and  _622
REMARK  250  A    between atoms: _621  and  _624
REMARK  251  A    between atoms: _624  and  _625
REMARK  252  A    between atoms: _628  and  _630
REMARK  253  A    between atoms: _630  and  _631
REMARK  254  A    between atoms: _630  and  _633
REMARK  255  A    between atoms: _633  and  _634
REMARK  256  A    between atoms: _636  and  _638
REMARK  257  A    between atoms: _638  and  _639
REMARK  258  A    between atoms: _638  and  _641
REMARK  259  A    between atoms: _641  and  _642
REMARK  260  A    between atoms: _642  and  _643
REMARK  261  A    between atoms: _648  and  _650
REMARK  262  A    between atoms: _650  and  _651
REMARK  263  A    between atoms: _650  and  _653
REMARK  264  A    between atoms: _653  and  _654
REMARK  265  A    between atoms: _656  and  _658
REMARK  266  A    between atoms: _658  and  _659
REMARK  267  A    between atoms: _658  and  _661
REMARK  268  A    between atoms: _661  and  _662
REMARK  269  A    between atoms: _665  and  _667
REMARK  270  A    between atoms: _667  and  _668
REMARK  271  A    between atoms: _667  and  _670
REMARK  272  A    between atoms: _670  and  _671
REMARK  273  A    between atoms: _674  and  _676
REMARK  274  A    between atoms: _676  and  _677
REMARK  275  A    between atoms: _676  and  _679
REMARK  276  A    between atoms: _682  and  _684
REMARK  277  A    between atoms: _684  and  _685
REMARK  278  A    between atoms: _684  and  _687
REMARK  279  A    between atoms: _687  and  _688
REMARK  280  A    between atoms: _688  and  _689
REMARK  281  A    between atoms: _691  and  _693
REMARK  282  A    between atoms: _693  and  _694
REMARK  283  A    between atoms: _696  and  _698
REMARK  284  A    between atoms: _698  and  _699
REMARK  285  A    between atoms: _702  and  _704
REMARK  286  A    between atoms: _704  and  _705
REMARK  287  A    between atoms: _704  and  _707
REMARK  288  A    between atoms: _710  and  _712
REMARK  289  A    between atoms: _712  and  _713
REMARK  290  A    between atoms: _712  and  _715
REMARK  291  A    between atoms: _715  and  _716
REMARK  292  A    between atoms: _716  and  _717
REMARK  293  A    between atoms: _719  and  _721
REMARK  294  A    between atoms: _721  and  _722
REMARK  295  A    between atoms: _721  and  _724
REMARK  296  A    between atoms: _724  and  _725
REMARK  297  A    between atoms: _725  and  _726
REMARK                            x       y       z     vdW  Elec       q    Type
REMARK                         _______ _______ _______ _____ _____    ______ ____
ROOT
ATOM      1  O   HOH     1      -6.614   2.779  38.310  0.00  0.00    +0.000 OA
ENDROOT
TORSDOF 0
REMARK  Name = ../refined-set-2016/2p4j/2p4j_pocket.pdb
REMARK  297 active torsions:
REMARK  status: ('A' for Active; 'I' for Inactive)
REMARK    1  A    between atoms: _1  and  _3
REMARK    2  A    between atoms: _3  and  _4
REMARK    3  A    between atoms: _6  and  _8
REMARK    4  A    between atoms: _8  and  _9
REMARK    5  A    between atoms: _8  and  _11
REMARK    6  A    between atoms: _11  and  _12
REMARK    7  A    between atoms: _12  and  _13
REMARK    8  A    between atoms: _13  and  _14
REMARK    9  A    between atoms: _14  and  _15
REMARK   10  A    between atoms: _19  and  _21
REMARK   11  A    between atoms: _21  and  _22
REMARK   12  A    between atoms: _21  and  _24
REMARK   13  A    between atoms: _24  and  _25
REMARK   14  A    between atoms: _27  and  _29
REMARK   15  A    between atoms: _29  and  _30
REMARK   16  A    between atoms: _32  and  _34
REMARK   17  A    between atoms: _34  and  _35
REMARK   18  A    between atoms: _34  and  _37
REMARK   19  A    between atoms: _37  and  _38
REMARK   20  A    between atoms: _38  and  _39
REMARK   21  A    between atoms: _44  and  _46
REMARK   22  A    between atoms: _46  and  _47
REMARK   23  A    between atoms: _49  and  _51
REMARK   24  A    between atoms: _51  and  _52
REMARK   25  A    between atoms: _51  and  _54
REMARK   26  A    between atoms: _54  and  _55
REMARK   27  A    between atoms: _60  and  _61
REMARK   28  A    between atoms: _63  and  _65
REMARK   29  A    between atoms: _65  and  _66
REMARK   30  A    between atoms: _65  and  _68
REMARK   31  A    between atoms: _68  and  _69
REMARK   32  A    between atoms: _72  and  _74
REMARK   33  A    between atoms: _74  and  _75
REMARK   34  A    between atoms: _74  and  _77
REMARK   35  A    between atoms: _80  and  _82
REMARK   36  A    between atoms: _82  and  _83
REMARK   37  A    between atoms: _82  and  _85
REMARK   38  A    between atoms: _85  and  _86
REMARK   39  A    between atoms: _89  and  _91
REMARK   40  A    between atoms: _91  and  _92
REMARK   41  A    between atoms: _91  and  _94
REMARK   42  A    between atoms: _94  and  _95
REMARK   43  A    between atoms: _98  and  _100
REMARK   44  A    between atoms: _100  and  _101
REMARK   45  A    between atoms: _103  and  _105
REMARK   46  A    between atoms: _105  and  _106
REMARK   47  A    between atoms: _105  and  _108
REMARK   48  A    between atoms: _108  and  _109
REMARK   49  A    between atoms: _111  and  _113
REMARK   50  A    between atoms: _113  and  _114
REMARK   51  A    between atoms: _113  and  _116
REMARK   52  A    between atoms: _116  and  _117
REMARK   53  A    between atoms: _119  and  _121
REMARK   54  A    between atoms: _121  and  _122
REMARK   55  A    between atoms: _121  and  _124
REMARK   56  A    between atoms: _124  and  _125
REMARK   57  A    between atoms: _130  and  _132
REMARK   58  A    between atoms: _132  and  _133
REMARK   59  A    between atoms: _132  and  _135
REMARK   60  A    between atoms: _135  and  _136
REMARK   61  A    between atoms: _141  and  _142
REMARK   62  A    between atoms: _144  and  _146
REMARK   63  A    between atoms: _146  and  _147
REMARK   64  A    between atoms: _146  and  _149
REMARK   65  A    between atoms: _153  and  _154
REMARK   66  A    between atoms: _159  and  _161
REMARK   67  A    between atoms: _161  and  _162
REMARK   68  A    between atoms: _161  and  _164
REMARK   69  A    between atoms: _164  and  _165
REMARK   70  A    between atoms: _170  and  _171
REMARK   71  A    between atoms: _173  and  _175
REMARK   72  A    between atoms: _175  and  _176
REMARK   73  A    between atoms: _175  and  _178
REMARK   74  A    between atoms: _178  and  _179
REMARK   75  A    between atoms: _182  and  _184
REMARK   76  A    between atoms: _184  and  _185
REMARK   77  A    between atoms: _184  and  _187
REMARK   78  A    between atoms: _187  and  _188
REMARK   79  A    between atoms: _188  and  _189
REMARK   80  A    between atoms: _194  and  _196
REMARK   81  A    between atoms: _196  and  _197
REMARK   82  A    between atoms: _199  and  _201
REMARK   83  A    between atoms: _201  and  _202
REMARK   84  A    between atoms: _201  and  _204
REMARK   85  A    between atoms: _204  and  _205
REMARK   86  A    between atoms: _205  and  _206
REMARK   87  A    between atoms: _206  and  _207
REMARK   88  A    between atoms: _207  and  _208
REMARK   89  A    between atoms: _212  and  _214
REMARK   90  A    between atoms: _214  and  _215
REMARK   91  A    between atoms: _214  and  _217
REMARK   92  A    between atoms: _217  and  _218
REMARK   93  A    between atoms: _228  and  _230
REMARK   94  A    between atoms: _230  and  _231
REMARK   95  A    between atoms: _230  and  _233
REMARK   96  A    between atoms: _233  and  _234
REMARK   97  A    between atoms: _237  and  _239
REMARK   98  A    between atoms: _239  and  _240
REMARK   99  A    between atoms: _239  and  _242
REMARK  100  A    between atoms: _242  and  _243
REMARK  101  A    between atoms: _243  and  _244
REMARK  102  A    between atoms: _244  and  _245
REMARK  103  A    between atoms: _245  and  _246
REMARK  104  A    between atoms: _250  and  _252
REMARK  105  A    between atoms: _252  and  _253
REMARK  106  A    between atoms: _252  and  _255
REMARK  107  A    between atoms: _255  and  _256
REMARK  108  A    between atoms: _262  and  _264
REMARK  109  A    between atoms: _264  and  _265
REMARK  110  A    between atoms: _264  and  _267
REMARK  111  A    between atoms: _267  and  _268
REMARK  112  A    between atoms: _274  and  _276
REMARK  113  A    between atoms: _276  and  _277
REMARK  114  A    between atoms: _276  and  _279
REMARK  115  A    between atoms: _279  and  _280
REMARK  116  A    between atoms: _283  and  _285
REMARK  117  A    between atoms: _285  and  _286
REMARK  118  A    between atoms: _285  and  _288
REMARK  119  A    between atoms: _288  and  _289
REMARK  120  A    between atoms: _291  and  _293
REMARK  121  A    between atoms: _293  and  _294
REMARK  122  A    between atoms: _293  and  _296
REMARK  123  A    between atoms: _296  and  _297
REMARK  124  A    between atoms: _307  and  _309
REMARK  125  A    between atoms: _309  and  _310
REMARK  126  A    between atoms: _312  and  _314
REMARK  127  A    between atoms: _314  and  _315
REMARK  128  A    between atoms: _314  and  _317
REMARK  129  A    between atoms: _317  and  _318
REMARK  130  A    between atoms: _321  and  _323
REMARK  131  A    between atoms: _323  and  _324
REMARK  132  A    between atoms: _323  and  _326
REMARK  133  A    between atoms: _326  and  _327
REMARK  134  A    between atoms: _330  and  _332
REMARK  135  A    between atoms: _332  and  _333
REMARK  136  A    between atoms: _332  and  _335
REMARK  137  A    between atoms: _335  and  _336
REMARK  138  A    between atoms: _339  and  _341
REMARK  139  A    between atoms: _341  and  _342
REMARK  140  A    between atoms: _345  and  _347
REMARK  141  A    between atoms: _347  and  _348
REMARK  142  A    between atoms: _347  and  _350
REMARK  143  A    between atoms: _350  and  _351
REMARK  144  A    between atoms: _356  and  _357
REMARK  145  A    between atoms: _359  and  _361
REMARK  146  A    between atoms: _361  and  _362
REMARK  147  A    between atoms: _361  and  _364
REMARK  148  A    between atoms: _364  and  _365
REMARK  149  A    between atoms: _365  and  _366
REMARK  150  A    between atoms: _369  and  _371
REMARK  151  A    between atoms: _371  and  _372
REMARK  152  A    between atoms: _371  and  _374
REMARK  153  A    between atoms: _374  and  _375
REMARK  154  A    between atoms: _378  and  _380
REMARK  155  A    between atoms: _380  and  _381
REMARK  156  A    between atoms: _384  and  _386
REMARK  157  A    between atoms: _386  and  _387
REMARK  158  A    between atoms: _386  and  _389
REMARK  159  A    between atoms: _389  and  _390
REMARK  160  A    between atoms: _390  and  _391
REMARK  161  A    between atoms: _391  and  _392
REMARK  162  A    between atoms: _401  and  _403
REMARK  163  A    between atoms: _403  and  _404
REMARK  164  A    between atoms: _403  and  _406
REMARK  165  A    between atoms: _406  and  _407
REMARK  166  A    between atoms: _410  and  _412
REMARK  167  A    between atoms: _412  and  _413
REMARK  168  A    between atoms: _412  and  _415
REMARK  169  A    between atoms: _415  and  _416
REMARK  170  A    between atoms: _426  and  _428
REMARK  171  A    between atoms: _428  and  _429
REMARK  172  A    between atoms: _428  and  _431
REMARK  173  A    between atoms: _431  and  _432
REMARK  174  A    between atoms: _437  and  _438
REMARK  175  A    between atoms: _440  and  _442
REMARK  176  A    between atoms: _442  and  _443
REMARK  177  A    between atoms: _442  and  _445
REMARK  178  A    between atoms: _445  and  _446
REMARK  179  A    between atoms: _451  and  _452
REMARK  180  A    between atoms: _454  and  _456
REMARK  181  A    between atoms: _456  and  _457
REMARK  182  A    between atoms: _456  and  _459
REMARK  183  A    between atoms: _459  and  _460
REMARK  184  A    between atoms: _460  and  _461
REMARK  185  A    between atoms: _461  and  _462
REMARK  186  A    between atoms: _462  and  _463
REMARK  187  A    between atoms: _467  and  _469
REMARK  188  A    between atoms: _469  and  _470
REMARK  189  A    between atoms: _469  and  _472
REMARK  190  A    between atoms: _472  and  _473
REMARK  191  A    between atoms: _476  and  _478
REMARK  192  A    between atoms: _478  and  _479
REMARK  193  A    between atoms: _478  and  _481
REMARK  194  A    between atoms: _484  and  _486
REMARK  195  A    between atoms: _486  and  _487
REMARK  196  A    between atoms: _486  and  _489
REMARK  197  A    between atoms: _489  and  _490
REMARK  198  A    between atoms: _493  and  _495
REMARK  199  A    between atoms: _495  and  _496
REMARK  200  A    between atoms: _495  and  _498
REMARK  201  A    between atoms: _498  and  _499
REMARK  202  A    between atoms: _501  and  _503
REMARK  203  A    between atoms: _503  and  _504
REMARK  204  A    between atoms: _506  and  _508
REMARK  205  A    between atoms: _508  and  _509
REMARK  206  A    between atoms: _508  and  _511
REMARK  207  A    between atoms: _511  and  _512
REMARK  208  A    between atoms: _515  and  _517
REMARK  209  A    between atoms: _517  and  _518
REMARK  210  A    between atoms: _517  and  _520
REMARK  211  A    between atoms: _520  and  _521
REMARK  212  A    between atoms: _524  and  _526
REMARK  213  A    between atoms: _526  and  _527
REMARK  214  A    between atoms: _526  and  _529
REMARK  215  A    between atoms: _529  and  _530
REMARK  216  A    between atoms: _535  and  _537
REMARK  217  A    between atoms: _537  and  _538
REMARK  218  A    between atoms: _537  and  _540
REMARK  219  A    between atoms: _540  and  _541
REMARK  220  A    between atoms: _544  and  _546
REMARK  221  A    between atoms: _546  and  _547
REMARK  222  A    between atoms: _546  and  _549
REMARK  223  A    between atoms: _549  and  _550
REMARK  224  A    between atoms: _550  and  _551
REMARK  225  A    between atoms: _551  and  _552
REMARK  226  A    between atoms: _561  and  _563
REMARK  227  A    between atoms: _563  and  _564
REMARK  228  A    between atoms: _563  and  _566
REMARK  229  A    between atoms: _566  and  _567
REMARK  230  A    between atoms: _570  and  _572
REMARK  231  A    between atoms: _572  and  _573
REMARK  232  A    between atoms: _572  and  _575
REMARK  233  A    between atoms: _575  and  _576
REMARK  234  A    between atoms: _579  and  _581
REMARK  235  A    between atoms: _581  and  _582
REMARK  236  A    between atoms: _584  and  _586
REMARK  237  A    between atoms: _586  and  _587
REMARK  238  A    between atoms: _586  and  _589
REMARK  239  A    between atoms: _589  and  _590
REMARK  240  A    between atoms: _590  and  _591
REMARK  241  A    between atoms: _591  and  _592
REMARK  242  A    between atoms: _601  and  _603
REMARK  243  A    between atoms: _603  and  _604
REMARK  244  A    between atoms: _603  and  _606
REMARK  245  A    between atoms: _606  and  _607
REMARK  246  A    between atoms: _613  and  _615
REMARK  247  A    between atoms: _615  and  _616
REMARK  248  A    between atoms: _619  and  _621
REMARK  249  A    between atoms: _621  and  _622
REMARK  250  A    between atoms: _621  and  _624
REMARK  251  A    between atoms: _624  and  _625
REMARK  252  A    between atoms: _628  and  _630
REMARK  253  A    between atoms: _630  and  _631
REMARK  254  A    between atoms: _630  and  _633
REMARK  255  A    between atoms: _633  and  _634
REMARK  256  A    between atoms: _636  and  _638
REMARK  257  A    between atoms: _638  and  _639
REMARK  258  A    between atoms: _638  and  _641
REMARK  259  A    between atoms: _641  and  _642
REMARK  260  A    between atoms: _642  and  _643
REMARK  261  A    between atoms: _648  and  _650
REMARK  262  A    between atoms: _650  and  _651
REMARK  263  A    between atoms: _650  and  _653
REMARK  264  A    between atoms: _653  and  _654
REMARK  265  A    between atoms: _656  and  _658
REMARK  266  A    between atoms: _658  and  _659
REMARK  267  A    between atoms: _658  and  _661
REMARK  268  A    between atoms: _661  and  _662
REMARK  269  A    between atoms: _665  and  _667
REMARK  270  A    between atoms: _667  and  _668
REMARK  271  A    between atoms: _667  and  _670
REMARK  272  A    between atoms: _670  and  _671
REMARK  273  A    between atoms: _674  and  _676
REMARK  274  A    between atoms: _676  and  _677
REMARK  275  A    between atoms: _676  and  _679
REMARK  276  A    between atoms: _682  and  _684
REMARK  277  A    between atoms: _684  and  _685
REMARK  278  A    between atoms: _684  and  _687
REMARK  279  A    between atoms: _687  and  _688
REMARK  280  A    between atoms: _688  and  _689
REMARK  281  A    between atoms: _691  and  _693
REMARK  282  A    between atoms: _693  and  _694
REMARK  283  A    between atoms: _696  and  _698
REMARK  284  A    between atoms: _698  and  _699
REMARK  285  A    between atoms: _702  and  _704
REMARK  286  A    between atoms: _704  and  _705
REMARK  287  A    between atoms: _704  and  _707
REMARK  288  A    between atoms: _710  and  _712
REMARK  289  A    between atoms: _712  and  _713
REMARK  290  A    between atoms: _712  and  _715
REMARK  291  A    between atoms: _715  and  _716
REMARK  292  A    between atoms: _716  and  _717
REMARK  293  A    between atoms: _719  and  _721
REMARK  294  A    between atoms: _721  and  _722
REMARK  295  A    between atoms: _721  and  _724
REMARK  296  A    between atoms: _724  and  _725
REMARK  297  A    between atoms: _725  and  _726
REMARK                            x       y       z     vdW  Elec       q    Type
REMARK                         _______ _______ _______ _____ _____    ______ ____
ROOT
ATOM      1  O   HOH     1      -9.191  -7.645  36.987  0.00  0.00    +0.000 OA
ENDROOT
TORSDOF 0
REMARK  Name = ../refined-set-2016/2p4j/2p4j_pocket.pdb
REMARK  297 active torsions:
REMARK  status: ('A' for Active; 'I' for Inactive)
REMARK    1  A    between atoms: _1  and  _3
REMARK    2  A    between atoms: _3  and  _4
REMARK    3  A    between atoms: _6  and  _8
REMARK    4  A    between atoms: _8  and  _9
REMARK    5  A    between atoms: _8  and  _11
REMARK    6  A    between atoms: _11  and  _12
REMARK    7  A    between atoms: _12  and  _13
REMARK    8  A    between atoms: _13  and  _14
REMARK    9  A    between atoms: _14  and  _15
REMARK   10  A    between atoms: _19  and  _21
REMARK   11  A    between atoms: _21  and  _22
REMARK   12  A    between atoms: _21  and  _24
REMARK   13  A    between atoms: _24  and  _25
REMARK   14  A    between atoms: _27  and  _29
REMARK   15  A    between atoms: _29  and  _30
REMARK   16  A    between atoms: _32  and  _34
REMARK   17  A    between atoms: _34  and  _35
REMARK   18  A    between atoms: _34  and  _37
REMARK   19  A    between atoms: _37  and  _38
REMARK   20  A    between atoms: _38  and  _39
REMARK   21  A    between atoms: _44  and  _46
REMARK   22  A    between atoms: _46  and  _47
REMARK   23  A    between atoms: _49  and  _51
REMARK   24  A    between atoms: _51  and  _52
REMARK   25  A    between atoms: _51  and  _54
REMARK   26  A    between atoms: _54  and  _55
REMARK   27  A    between atoms: _60  and  _61
REMARK   28  A    between atoms: _63  and  _65
REMARK   29  A    between atoms: _65  and  _66
REMARK   30  A    between atoms: _65  and  _68
REMARK   31  A    between atoms: _68  and  _69
REMARK   32  A    between atoms: _72  and  _74
REMARK   33  A    between atoms: _74  and  _75
REMARK   34  A    between atoms: _74  and  _77
REMARK   35  A    between atoms: _80  and  _82
REMARK   36  A    between atoms: _82  and  _83
REMARK   37  A    between atoms: _82  and  _85
REMARK   38  A    between atoms: _85  and  _86
REMARK   39  A    between atoms: _89  and  _91
REMARK   40  A    between atoms: _91  and  _92
REMARK   41  A    between atoms: _91  and  _94
REMARK   42  A    between atoms: _94  and  _95
REMARK   43  A    between atoms: _98  and  _100
REMARK   44  A    between atoms: _100  and  _101
REMARK   45  A    between atoms: _103  and  _105
REMARK   46  A    between atoms: _105  and  _106
REMARK   47  A    between atoms: _105  and  _108
REMARK   48  A    between atoms: _108  and  _109
REMARK   49  A    between atoms: _111  and  _113
REMARK   50  A    between atoms: _113  and  _114
REMARK   51  A    between atoms: _113  and  _116
REMARK   52  A    between atoms: _116  and  _117
REMARK   53  A    between atoms: _119  and  _121
REMARK   54  A    between atoms: _121  and  _122
REMARK   55  A    between atoms: _121  and  _124
REMARK   56  A    between atoms: _124  and  _125
REMARK   57  A    between atoms: _130  and  _132
REMARK   58  A    between atoms: _132  and  _133
REMARK   59  A    between atoms: _132  and  _135
REMARK   60  A    between atoms: _135  and  _136
REMARK   61  A    between atoms: _141  and  _142
REMARK   62  A    between atoms: _144  and  _146
REMARK   63  A    between atoms: _146  and  _147
REMARK   64  A    between atoms: _146  and  _149
REMARK   65  A    between atoms: _153  and  _154
REMARK   66  A    between atoms: _159  and  _161
REMARK   67  A    between atoms: _161  and  _162
REMARK   68  A    between atoms: _161  and  _164
REMARK   69  A    between atoms: _164  and  _165
REMARK   70  A    between atoms: _170  and  _171
REMARK   71  A    between atoms: _173  and  _175
REMARK   72  A    between atoms: _175  and  _176
REMARK   73  A    between atoms: _175  and  _178
REMARK   74  A    between atoms: _178  and  _179
REMARK   75  A    between atoms: _182  and  _184
REMARK   76  A    between atoms: _184  and  _185
REMARK   77  A    between atoms: _184  and  _187
REMARK   78  A    between atoms: _187  and  _188
REMARK   79  A    between atoms: _188  and  _189
REMARK   80  A    between atoms: _194  and  _196
REMARK   81  A    between atoms: _196  and  _197
REMARK   82  A    between atoms: _199  and  _201
REMARK   83  A    between atoms: _201  and  _202
REMARK   84  A    between atoms: _201  and  _204
REMARK   85  A    between atoms: _204  and  _205
REMARK   86  A    between atoms: _205  and  _206
REMARK   87  A    between atoms: _206  and  _207
REMARK   88  A    between atoms: _207  and  _208
REMARK   89  A    between atoms: _212  and  _214
REMARK   90  A    between atoms: _214  and  _215
REMARK   91  A    between atoms: _214  and  _217
REMARK   92  A    between atoms: _217  and  _218
REMARK   93  A    between atoms: _228  and  _230
REMARK   94  A    between atoms: _230  and  _231
REMARK   95  A    between atoms: _230  and  _233
REMARK   96  A    between atoms: _233  and  _234
REMARK   97  A    between atoms: _237  and  _239
REMARK   98  A    between atoms: _239  and  _240
REMARK   99  A    between atoms: _239  and  _242
REMARK  100  A    between atoms: _242  and  _243
REMARK  101  A    between atoms: _243  and  _244
REMARK  102  A    between atoms: _244  and  _245
REMARK  103  A    between atoms: _245  and  _246
REMARK  104  A    between atoms: _250  and  _252
REMARK  105  A    between atoms: _252  and  _253
REMARK  106  A    between atoms: _252  and  _255
REMARK  107  A    between atoms: _255  and  _256
REMARK  108  A    between atoms: _262  and  _264
REMARK  109  A    between atoms: _264  and  _265
REMARK  110  A    between atoms: _264  and  _267
REMARK  111  A    between atoms: _267  and  _268
REMARK  112  A    between atoms: _274  and  _276
REMARK  113  A    between atoms: _276  and  _277
REMARK  114  A    between atoms: _276  and  _279
REMARK  115  A    between atoms: _279  and  _280
REMARK  116  A    between atoms: _283  and  _285
REMARK  117  A    between atoms: _285  and  _286
REMARK  118  A    between atoms: _285  and  _288
REMARK  119  A    between atoms: _288  and  _289
REMARK  120  A    between atoms: _291  and  _293
REMARK  121  A    between atoms: _293  and  _294
REMARK  122  A    between atoms: _293  and  _296
REMARK  123  A    between atoms: _296  and  _297
REMARK  124  A    between atoms: _307  and  _309
REMARK  125  A    between atoms: _309  and  _310
REMARK  126  A    between atoms: _312  and  _314
REMARK  127  A    between atoms: _314  and  _315
REMARK  128  A    between atoms: _314  and  _317
REMARK  129  A    between atoms: _317  and  _318
REMARK  130  A    between atoms: _321  and  _323
REMARK  131  A    between atoms: _323  and  _324
REMARK  132  A    between atoms: _323  and  _326
REMARK  133  A    between atoms: _326  and  _327
REMARK  134  A    between atoms: _330  and  _332
REMARK  135  A    between atoms: _332  and  _333
REMARK  136  A    between atoms: _332  and  _335
REMARK  137  A    between atoms: _335  and  _336
REMARK  138  A    between atoms: _339  and  _341
REMARK  139  A    between atoms: _341  and  _342
REMARK  140  A    between atoms: _345  and  _347
REMARK  141  A    between atoms: _347  and  _348
REMARK  142  A    between atoms: _347  and  _350
REMARK  143  A    between atoms: _350  and  _351
REMARK  144  A    between atoms: _356  and  _357
REMARK  145  A    between atoms: _359  and  _361
REMARK  146  A    between atoms: _361  and  _362
REMARK  147  A    between atoms: _361  and  _364
REMARK  148  A    between atoms: _364  and  _365
REMARK  149  A    between atoms: _365  and  _366
REMARK  150  A    between atoms: _369  and  _371
REMARK  151  A    between atoms: _371  and  _372
REMARK  152  A    between atoms: _371  and  _374
REMARK  153  A    between atoms: _374  and  _375
REMARK  154  A    between atoms: _378  and  _380
REMARK  155  A    between atoms: _380  and  _381
REMARK  156  A    between atoms: _384  and  _386
REMARK  157  A    between atoms: _386  and  _387
REMARK  158  A    between atoms: _386  and  _389
REMARK  159  A    between atoms: _389  and  _390
REMARK  160  A    between atoms: _390  and  _391
REMARK  161  A    between atoms: _391  and  _392
REMARK  162  A    between atoms: _401  and  _403
REMARK  163  A    between atoms: _403  and  _404
REMARK  164  A    between atoms: _403  and  _406
REMARK  165  A    between atoms: _406  and  _407
REMARK  166  A    between atoms: _410  and  _412
REMARK  167  A    between atoms: _412  and  _413
REMARK  168  A    between atoms: _412  and  _415
REMARK  169  A    between atoms: _415  and  _416
REMARK  170  A    between atoms: _426  and  _428
REMARK  171  A    between atoms: _428  and  _429
REMARK  172  A    between atoms: _428  and  _431
REMARK  173  A    between atoms: _431  and  _432
REMARK  174  A    between atoms: _437  and  _438
REMARK  175  A    between atoms: _440  and  _442
REMARK  176  A    between atoms: _442  and  _443
REMARK  177  A    between atoms: _442  and  _445
REMARK  178  A    between atoms: _445  and  _446
REMARK  179  A    between atoms: _451  and  _452
REMARK  180  A    between atoms: _454  and  _456
REMARK  181  A    between atoms: _456  and  _457
REMARK  182  A    between atoms: _456  and  _459
REMARK  183  A    between atoms: _459  and  _460
REMARK  184  A    between atoms: _460  and  _461
REMARK  185  A    between atoms: _461  and  _462
REMARK  186  A    between atoms: _462  and  _463
REMARK  187  A    between atoms: _467  and  _469
REMARK  188  A    between atoms: _469  and  _470
REMARK  189  A    between atoms: _469  and  _472
REMARK  190  A    between atoms: _472  and  _473
REMARK  191  A    between atoms: _476  and  _478
REMARK  192  A    between atoms: _478  and  _479
REMARK  193  A    between atoms: _478  and  _481
REMARK  194  A    between atoms: _484  and  _486
REMARK  195  A    between atoms: _486  and  _487
REMARK  196  A    between atoms: _486  and  _489
REMARK  197  A    between atoms: _489  and  _490
REMARK  198  A    between atoms: _493  and  _495
REMARK  199  A    between atoms: _495  and  _496
REMARK  200  A    between atoms: _495  and  _498
REMARK  201  A    between atoms: _498  and  _499
REMARK  202  A    between atoms: _501  and  _503
REMARK  203  A    between atoms: _503  and  _504
REMARK  204  A    between atoms: _506  and  _508
REMARK  205  A    between atoms: _508  and  _509
REMARK  206  A    between atoms: _508  and  _511
REMARK  207  A    between atoms: _511  and  _512
REMARK  208  A    between atoms: _515  and  _517
REMARK  209  A    between atoms: _517  and  _518
REMARK  210  A    between atoms: _517  and  _520
REMARK  211  A    between atoms: _520  and  _521
REMARK  212  A    between atoms: _524  and  _526
REMARK  213  A    between atoms: _526  and  _527
REMARK  214  A    between atoms: _526  and  _529
REMARK  215  A    between atoms: _529  and  _530
REMARK  216  A    between atoms: _535  and  _537
REMARK  217  A    between atoms: _537  and  _538
REMARK  218  A    between atoms: _537  and  _540
REMARK  219  A    between atoms: _540  and  _541
REMARK  220  A    between atoms: _544  and  _546
REMARK  221  A    between atoms: _546  and  _547
REMARK  222  A    between atoms: _546  and  _549
REMARK  223  A    between atoms: _549  and  _550
REMARK  224  A    between atoms: _550  and  _551
REMARK  225  A    between atoms: _551  and  _552
REMARK  226  A    between atoms: _561  and  _563
REMARK  227  A    between atoms: _563  and  _564
REMARK  228  A    between atoms: _563  and  _566
REMARK  229  A    between atoms: _566  and  _567
REMARK  230  A    between atoms: _570  and  _572
REMARK  231  A    between atoms: _572  and  _573
REMARK  232  A    between atoms: _572  and  _575
REMARK  233  A    between atoms: _575  and  _576
REMARK  234  A    between atoms: _579  and  _581
REMARK  235  A    between atoms: _581  and  _582
REMARK  236  A    between atoms: _584  and  _586
REMARK  237  A    between atoms: _586  and  _587
REMARK  238  A    between atoms: _586  and  _589
REMARK  239  A    between atoms: _589  and  _590
REMARK  240  A    between atoms: _590  and  _591
REMARK  241  A    between atoms: _591  and  _592
REMARK  242  A    between atoms: _601  and  _603
REMARK  243  A    between atoms: _603  and  _604
REMARK  244  A    between atoms: _603  and  _606
REMARK  245  A    between atoms: _606  and  _607
REMARK  246  A    between atoms: _613  and  _615
REMARK  247  A    between atoms: _615  and  _616
REMARK  248  A    between atoms: _619  and  _621
REMARK  249  A    between atoms: _621  and  _622
REMARK  250  A    between atoms: _621  and  _624
REMARK  251  A    between atoms: _624  and  _625
REMARK  252  A    between atoms: _628  and  _630
REMARK  253  A    between atoms: _630  and  _631
REMARK  254  A    between atoms: _630  and  _633
REMARK  255  A    between atoms: _633  and  _634
REMARK  256  A    between atoms: _636  and  _638
REMARK  257  A    between atoms: _638  and  _639
REMARK  258  A    between atoms: _638  and  _641
REMARK  259  A    between atoms: _641  and  _642
REMARK  260  A    between atoms: _642  and  _643
REMARK  261  A    between atoms: _648  and  _650
REMARK  262  A    between atoms: _650  and  _651
REMARK  263  A    between atoms: _650  and  _653
REMARK  264  A    between atoms: _653  and  _654
REMARK  265  A    between atoms: _656  and  _658
REMARK  266  A    between atoms: _658  and  _659
REMARK  267  A    between atoms: _658  and  _661
REMARK  268  A    between atoms: _661  and  _662
REMARK  269  A    between atoms: _665  and  _667
REMARK  270  A    between atoms: _667  and  _668
REMARK  271  A    between atoms: _667  and  _670
REMARK  272  A    between atoms: _670  and  _671
REMARK  273  A    between atoms: _674  and  _676
REMARK  274  A    between atoms: _676  and  _677
REMARK  275  A    between atoms: _676  and  _679
REMARK  276  A    between atoms: _682  and  _684
REMARK  277  A    between atoms: _684  and  _685
REMARK  278  A    between atoms: _684  and  _687
REMARK  279  A    between atoms: _687  and  _688
REMARK  280  A    between atoms: _688  and  _689
REMARK  281  A    between atoms: _691  and  _693
REMARK  282  A    between atoms: _693  and  _694
REMARK  283  A    between atoms: _696  and  _698
REMARK  284  A    between atoms: _698  and  _699
REMARK  285  A    between atoms: _702  and  _704
REMARK  286  A    between atoms: _704  and  _705
REMARK  287  A    between atoms: _704  and  _707
REMARK  288  A    between atoms: _710  and  _712
REMARK  289  A    between atoms: _712  and  _713
REMARK  290  A    between atoms: _712  and  _715
REMARK  291  A    between atoms: _715  and  _716
REMARK  292  A    between atoms: _716  and  _717
REMARK  293  A    between atoms: _719  and  _721
REMARK  294  A    between atoms: _721  and  _722
REMARK  295  A    between atoms: _721  and  _724
REMARK  296  A    between atoms: _724  and  _725
REMARK  297  A    between atoms: _725  and  _726
REMARK                            x       y       z     vdW  Elec       q    Type
REMARK                         _______ _______ _______ _____ _____    ______ ____
ROOT
ATOM      1  O   HOH     1       4.660   0.233  23.112  0.00  0.00    +0.000 OA
ENDROOT
TORSDOF 0
REMARK  Name = ../refined-set-2016/2p4j/2p4j_pocket.pdb
REMARK  297 active torsions:
REMARK  status: ('A' for Active; 'I' for Inactive)
REMARK    1  A    between atoms: _1  and  _3
REMARK    2  A    between atoms: _3  and  _4
REMARK    3  A    between atoms: _6  and  _8
REMARK    4  A    between atoms: _8  and  _9
REMARK    5  A    between atoms: _8  and  _11
REMARK    6  A    between atoms: _11  and  _12
REMARK    7  A    between atoms: _12  and  _13
REMARK    8  A    between atoms: _13  and  _14
REMARK    9  A    between atoms: _14  and  _15
REMARK   10  A    between atoms: _19  and  _21
REMARK   11  A    between atoms: _21  and  _22
REMARK   12  A    between atoms: _21  and  _24
REMARK   13  A    between atoms: _24  and  _25
REMARK   14  A    between atoms: _27  and  _29
REMARK   15  A    between atoms: _29  and  _30
REMARK   16  A    between atoms: _32  and  _34
REMARK   17  A    between atoms: _34  and  _35
REMARK   18  A    between atoms: _34  and  _37
REMARK   19  A    between atoms: _37  and  _38
REMARK   20  A    between atoms: _38  and  _39
REMARK   21  A    between atoms: _44  and  _46
REMARK   22  A    between atoms: _46  and  _47
REMARK   23  A    between atoms: _49  and  _51
REMARK   24  A    between atoms: _51  and  _52
REMARK   25  A    between atoms: _51  and  _54
REMARK   26  A    between atoms: _54  and  _55
REMARK   27  A    between atoms: _60  and  _61
REMARK   28  A    between atoms: _63  and  _65
REMARK   29  A    between atoms: _65  and  _66
REMARK   30  A    between atoms: _65  and  _68
REMARK   31  A    between atoms: _68  and  _69
REMARK   32  A    between atoms: _72  and  _74
REMARK   33  A    between atoms: _74  and  _75
REMARK   34  A    between atoms: _74  and  _77
REMARK   35  A    between atoms: _80  and  _82
REMARK   36  A    between atoms: _82  and  _83
REMARK   37  A    between atoms: _82  and  _85
REMARK   38  A    between atoms: _85  and  _86
REMARK   39  A    between atoms: _89  and  _91
REMARK   40  A    between atoms: _91  and  _92
REMARK   41  A    between atoms: _91  and  _94
REMARK   42  A    between atoms: _94  and  _95
REMARK   43  A    between atoms: _98  and  _100
REMARK   44  A    between atoms: _100  and  _101
REMARK   45  A    between atoms: _103  and  _105
REMARK   46  A    between atoms: _105  and  _106
REMARK   47  A    between atoms: _105  and  _108
REMARK   48  A    between atoms: _108  and  _109
REMARK   49  A    between atoms: _111  and  _113
REMARK   50  A    between atoms: _113  and  _114
REMARK   51  A    between atoms: _113  and  _116
REMARK   52  A    between atoms: _116  and  _117
REMARK   53  A    between atoms: _119  and  _121
REMARK   54  A    between atoms: _121  and  _122
REMARK   55  A    between atoms: _121  and  _124
REMARK   56  A    between atoms: _124  and  _125
REMARK   57  A    between atoms: _130  and  _132
REMARK   58  A    between atoms: _132  and  _133
REMARK   59  A    between atoms: _132  and  _135
REMARK   60  A    between atoms: _135  and  _136
REMARK   61  A    between atoms: _141  and  _142
REMARK   62  A    between atoms: _144  and  _146
REMARK   63  A    between atoms: _146  and  _147
REMARK   64  A    between atoms: _146  and  _149
REMARK   65  A    between atoms: _153  and  _154
REMARK   66  A    between atoms: _159  and  _161
REMARK   67  A    between atoms: _161  and  _162
REMARK   68  A    between atoms: _161  and  _164
REMARK   69  A    between atoms: _164  and  _165
REMARK   70  A    between atoms: _170  and  _171
REMARK   71  A    between atoms: _173  and  _175
REMARK   72  A    between atoms: _175  and  _176
REMARK   73  A    between atoms: _175  and  _178
REMARK   74  A    between atoms: _178  and  _179
REMARK   75  A    between atoms: _182  and  _184
REMARK   76  A    between atoms: _184  and  _185
REMARK   77  A    between atoms: _184  and  _187
REMARK   78  A    between atoms: _187  and  _188
REMARK   79  A    between atoms: _188  and  _189
REMARK   80  A    between atoms: _194  and  _196
REMARK   81  A    between atoms: _196  and  _197
REMARK   82  A    between atoms: _199  and  _201
REMARK   83  A    between atoms: _201  and  _202
REMARK   84  A    between atoms: _201  and  _204
REMARK   85  A    between atoms: _204  and  _205
REMARK   86  A    between atoms: _205  and  _206
REMARK   87  A    between atoms: _206  and  _207
REMARK   88  A    between atoms: _207  and  _208
REMARK   89  A    between atoms: _212  and  _214
REMARK   90  A    between atoms: _214  and  _215
REMARK   91  A    between atoms: _214  and  _217
REMARK   92  A    between atoms: _217  and  _218
REMARK   93  A    between atoms: _228  and  _230
REMARK   94  A    between atoms: _230  and  _231
REMARK   95  A    between atoms: _230  and  _233
REMARK   96  A    between atoms: _233  and  _234
REMARK   97  A    between atoms: _237  and  _239
REMARK   98  A    between atoms: _239  and  _240
REMARK   99  A    between atoms: _239  and  _242
REMARK  100  A    between atoms: _242  and  _243
REMARK  101  A    between atoms: _243  and  _244
REMARK  102  A    between atoms: _244  and  _245
REMARK  103  A    between atoms: _245  and  _246
REMARK  104  A    between atoms: _250  and  _252
REMARK  105  A    between atoms: _252  and  _253
REMARK  106  A    between atoms: _252  and  _255
REMARK  107  A    between atoms: _255  and  _256
REMARK  108  A    between atoms: _262  and  _264
REMARK  109  A    between atoms: _264  and  _265
REMARK  110  A    between atoms: _264  and  _267
REMARK  111  A    between atoms: _267  and  _268
REMARK  112  A    between atoms: _274  and  _276
REMARK  113  A    between atoms: _276  and  _277
REMARK  114  A    between atoms: _276  and  _279
REMARK  115  A    between atoms: _279  and  _280
REMARK  116  A    between atoms: _283  and  _285
REMARK  117  A    between atoms: _285  and  _286
REMARK  118  A    between atoms: _285  and  _288
REMARK  119  A    between atoms: _288  and  _289
REMARK  120  A    between atoms: _291  and  _293
REMARK  121  A    between atoms: _293  and  _294
REMARK  122  A    between atoms: _293  and  _296
REMARK  123  A    between atoms: _296  and  _297
REMARK  124  A    between atoms: _307  and  _309
REMARK  125  A    between atoms: _309  and  _310
REMARK  126  A    between atoms: _312  and  _314
REMARK  127  A    between atoms: _314  and  _315
REMARK  128  A    between atoms: _314  and  _317
REMARK  129  A    between atoms: _317  and  _318
REMARK  130  A    between atoms: _321  and  _323
REMARK  131  A    between atoms: _323  and  _324
REMARK  132  A    between atoms: _323  and  _326
REMARK  133  A    between atoms: _326  and  _327
REMARK  134  A    between atoms: _330  and  _332
REMARK  135  A    between atoms: _332  and  _333
REMARK  136  A    between atoms: _332  and  _335
REMARK  137  A    between atoms: _335  and  _336
REMARK  138  A    between atoms: _339  and  _341
REMARK  139  A    between atoms: _341  and  _342
REMARK  140  A    between atoms: _345  and  _347
REMARK  141  A    between atoms: _347  and  _348
REMARK  142  A    between atoms: _347  and  _350
REMARK  143  A    between atoms: _350  and  _351
REMARK  144  A    between atoms: _356  and  _357
REMARK  145  A    between atoms: _359  and  _361
REMARK  146  A    between atoms: _361  and  _362
REMARK  147  A    between atoms: _361  and  _364
REMARK  148  A    between atoms: _364  and  _365
REMARK  149  A    between atoms: _365  and  _366
REMARK  150  A    between atoms: _369  and  _371
REMARK  151  A    between atoms: _371  and  _372
REMARK  152  A    between atoms: _371  and  _374
REMARK  153  A    between atoms: _374  and  _375
REMARK  154  A    between atoms: _378  and  _380
REMARK  155  A    between atoms: _380  and  _381
REMARK  156  A    between atoms: _384  and  _386
REMARK  157  A    between atoms: _386  and  _387
REMARK  158  A    between atoms: _386  and  _389
REMARK  159  A    between atoms: _389  and  _390
REMARK  160  A    between atoms: _390  and  _391
REMARK  161  A    between atoms: _391  and  _392
REMARK  162  A    between atoms: _401  and  _403
REMARK  163  A    between atoms: _403  and  _404
REMARK  164  A    between atoms: _403  and  _406
REMARK  165  A    between atoms: _406  and  _407
REMARK  166  A    between atoms: _410  and  _412
REMARK  167  A    between atoms: _412  and  _413
REMARK  168  A    between atoms: _412  and  _415
REMARK  169  A    between atoms: _415  and  _416
REMARK  170  A    between atoms: _426  and  _428
REMARK  171  A    between atoms: _428  and  _429
REMARK  172  A    between atoms: _428  and  _431
REMARK  173  A    between atoms: _431  and  _432
REMARK  174  A    between atoms: _437  and  _438
REMARK  175  A    between atoms: _440  and  _442
REMARK  176  A    between atoms: _442  and  _443
REMARK  177  A    between atoms: _442  and  _445
REMARK  178  A    between atoms: _445  and  _446
REMARK  179  A    between atoms: _451  and  _452
REMARK  180  A    between atoms: _454  and  _456
REMARK  181  A    between atoms: _456  and  _457
REMARK  182  A    between atoms: _456  and  _459
REMARK  183  A    between atoms: _459  and  _460
REMARK  184  A    between atoms: _460  and  _461
REMARK  185  A    between atoms: _461  and  _462
REMARK  186  A    between atoms: _462  and  _463
REMARK  187  A    between atoms: _467  and  _469
REMARK  188  A    between atoms: _469  and  _470
REMARK  189  A    between atoms: _469  and  _472
REMARK  190  A    between atoms: _472  and  _473
REMARK  191  A    between atoms: _476  and  _478
REMARK  192  A    between atoms: _478  and  _479
REMARK  193  A    between atoms: _478  and  _481
REMARK  194  A    between atoms: _484  and  _486
REMARK  195  A    between atoms: _486  and  _487
REMARK  196  A    between atoms: _486  and  _489
REMARK  197  A    between atoms: _489  and  _490
REMARK  198  A    between atoms: _493  and  _495
REMARK  199  A    between atoms: _495  and  _496
REMARK  200  A    between atoms: _495  and  _498
REMARK  201  A    between atoms: _498  and  _499
REMARK  202  A    between atoms: _501  and  _503
REMARK  203  A    between atoms: _503  and  _504
REMARK  204  A    between atoms: _506  and  _508
REMARK  205  A    between atoms: _508  and  _509
REMARK  206  A    between atoms: _508  and  _511
REMARK  207  A    between atoms: _511  and  _512
REMARK  208  A    between atoms: _515  and  _517
REMARK  209  A    between atoms: _517  and  _518
REMARK  210  A    between atoms: _517  and  _520
REMARK  211  A    between atoms: _520  and  _521
REMARK  212  A    between atoms: _524  and  _526
REMARK  213  A    between atoms: _526  and  _527
REMARK  214  A    between atoms: _526  and  _529
REMARK  215  A    between atoms: _529  and  _530
REMARK  216  A    between atoms: _535  and  _537
REMARK  217  A    between atoms: _537  and  _538
REMARK  218  A    between atoms: _537  and  _540
REMARK  219  A    between atoms: _540  and  _541
REMARK  220  A    between atoms: _544  and  _546
REMARK  221  A    between atoms: _546  and  _547
REMARK  222  A    between atoms: _546  and  _549
REMARK  223  A    between atoms: _549  and  _550
REMARK  224  A    between atoms: _550  and  _551
REMARK  225  A    between atoms: _551  and  _552
REMARK  226  A    between atoms: _561  and  _563
REMARK  227  A    between atoms: _563  and  _564
REMARK  228  A    between atoms: _563  and  _566
REMARK  229  A    between atoms: _566  and  _567
REMARK  230  A    between atoms: _570  and  _572
REMARK  231  A    between atoms: _572  and  _573
REMARK  232  A    between atoms: _572  and  _575
REMARK  233  A    between atoms: _575  and  _576
REMARK  234  A    between atoms: _579  and  _581
REMARK  235  A    between atoms: _581  and  _582
REMARK  236  A    between atoms: _584  and  _586
REMARK  237  A    between atoms: _586  and  _587
REMARK  238  A    between atoms: _586  and  _589
REMARK  239  A    between atoms: _589  and  _590
REMARK  240  A    between atoms: _590  and  _591
REMARK  241  A    between atoms: _591  and  _592
REMARK  242  A    between atoms: _601  and  _603
REMARK  243  A    between atoms: _603  and  _604
REMARK  244  A    between atoms: _603  and  _606
REMARK  245  A    between atoms: _606  and  _607
REMARK  246  A    between atoms: _613  and  _615
REMARK  247  A    between atoms: _615  and  _616
REMARK  248  A    between atoms: _619  and  _621
REMARK  249  A    between atoms: _621  and  _622
REMARK  250  A    between atoms: _621  and  _624
REMARK  251  A    between atoms: _624  and  _625
REMARK  252  A    between atoms: _628  and  _630
REMARK  253  A    between atoms: _630  and  _631
REMARK  254  A    between atoms: _630  and  _633
REMARK  255  A    between atoms: _633  and  _634
REMARK  256  A    between atoms: _636  and  _638
REMARK  257  A    between atoms: _638  and  _639
REMARK  258  A    between atoms: _638  and  _641
REMARK  259  A    between atoms: _641  and  _642
REMARK  260  A    between atoms: _642  and  _643
REMARK  261  A    between atoms: _648  and  _650
REMARK  262  A    between atoms: _650  and  _651
REMARK  263  A    between atoms: _650  and  _653
REMARK  264  A    between atoms: _653  and  _654
REMARK  265  A    between atoms: _656  and  _658
REMARK  266  A    between atoms: _658  and  _659
REMARK  267  A    between atoms: _658  and  _661
REMARK  268  A    between atoms: _661  and  _662
REMARK  269  A    between atoms: _665  and  _667
REMARK  270  A    between atoms: _667  and  _668
REMARK  271  A    between atoms: _667  and  _670
REMARK  272  A    between atoms: _670  and  _671
REMARK  273  A    between atoms: _674  and  _676
REMARK  274  A    between atoms: _676  and  _677
REMARK  275  A    between atoms: _676  and  _679
REMARK  276  A    between atoms: _682  and  _684
REMARK  277  A    between atoms: _684  and  _685
REMARK  278  A    between atoms: _684  and  _687
REMARK  279  A    between atoms: _687  and  _688
REMARK  280  A    between atoms: _688  and  _689
REMARK  281  A    between atoms: _691  and  _693
REMARK  282  A    between atoms: _693  and  _694
REMARK  283  A    between atoms: _696  and  _698
REMARK  284  A    between atoms: _698  and  _699
REMARK  285  A    between atoms: _702  and  _704
REMARK  286  A    between atoms: _704  and  _705
REMARK  287  A    between atoms: _704  and  _707
REMARK  288  A    between atoms: _710  and  _712
REMARK  289  A    between atoms: _712  and  _713
REMARK  290  A    between atoms: _712  and  _715
REMARK  291  A    between atoms: _715  and  _716
REMARK  292  A    between atoms: _716  and  _717
REMARK  293  A    between atoms: _719  and  _721
REMARK  294  A    between atoms: _721  and  _722
REMARK  295  A    between atoms: _721  and  _724
REMARK  296  A    between atoms: _724  and  _725
REMARK  297  A    between atoms: _725  and  _726
REMARK                            x       y       z     vdW  Elec       q    Type
REMARK                         _______ _______ _______ _____ _____    ______ ____
ROOT
ATOM      1  O   HOH     1       1.733  -5.330  37.956  0.00  0.00    +0.000 OA
ENDROOT
TORSDOF 0
REMARK  Name = ../refined-set-2016/2p4j/2p4j_pocket.pdb
REMARK  297 active torsions:
REMARK  status: ('A' for Active; 'I' for Inactive)
REMARK    1  A    between atoms: _1  and  _3
REMARK    2  A    between atoms: _3  and  _4
REMARK    3  A    between atoms: _6  and  _8
REMARK    4  A    between atoms: _8  and  _9
REMARK    5  A    between atoms: _8  and  _11
REMARK    6  A    between atoms: _11  and  _12
REMARK    7  A    between atoms: _12  and  _13
REMARK    8  A    between atoms: _13  and  _14
REMARK    9  A    between atoms: _14  and  _15
REMARK   10  A    between atoms: _19  and  _21
REMARK   11  A    between atoms: _21  and  _22
REMARK   12  A    between atoms: _21  and  _24
REMARK   13  A    between atoms: _24  and  _25
REMARK   14  A    between atoms: _27  and  _29
REMARK   15  A    between atoms: _29  and  _30
REMARK   16  A    between atoms: _32  and  _34
REMARK   17  A    between atoms: _34  and  _35
REMARK   18  A    between atoms: _34  and  _37
REMARK   19  A    between atoms: _37  and  _38
REMARK   20  A    between atoms: _38  and  _39
REMARK   21  A    between atoms: _44  and  _46
REMARK   22  A    between atoms: _46  and  _47
REMARK   23  A    between atoms: _49  and  _51
REMARK   24  A    between atoms: _51  and  _52
REMARK   25  A    between atoms: _51  and  _54
REMARK   26  A    between atoms: _54  and  _55
REMARK   27  A    between atoms: _60  and  _61
REMARK   28  A    between atoms: _63  and  _65
REMARK   29  A    between atoms: _65  and  _66
REMARK   30  A    between atoms: _65  and  _68
REMARK   31  A    between atoms: _68  and  _69
REMARK   32  A    between atoms: _72  and  _74
REMARK   33  A    between atoms: _74  and  _75
REMARK   34  A    between atoms: _74  and  _77
REMARK   35  A    between atoms: _80  and  _82
REMARK   36  A    between atoms: _82  and  _83
REMARK   37  A    between atoms: _82  and  _85
REMARK   38  A    between atoms: _85  and  _86
REMARK   39  A    between atoms: _89  and  _91
REMARK   40  A    between atoms: _91  and  _92
REMARK   41  A    between atoms: _91  and  _94
REMARK   42  A    between atoms: _94  and  _95
REMARK   43  A    between atoms: _98  and  _100
REMARK   44  A    between atoms: _100  and  _101
REMARK   45  A    between atoms: _103  and  _105
REMARK   46  A    between atoms: _105  and  _106
REMARK   47  A    between atoms: _105  and  _108
REMARK   48  A    between atoms: _108  and  _109
REMARK   49  A    between atoms: _111  and  _113
REMARK   50  A    between atoms: _113  and  _114
REMARK   51  A    between atoms: _113  and  _116
REMARK   52  A    between atoms: _116  and  _117
REMARK   53  A    between atoms: _119  and  _121
REMARK   54  A    between atoms: _121  and  _122
REMARK   55  A    between atoms: _121  and  _124
REMARK   56  A    between atoms: _124  and  _125
REMARK   57  A    between atoms: _130  and  _132
REMARK   58  A    between atoms: _132  and  _133
REMARK   59  A    between atoms: _132  and  _135
REMARK   60  A    between atoms: _135  and  _136
REMARK   61  A    between atoms: _141  and  _142
REMARK   62  A    between atoms: _144  and  _146
REMARK   63  A    between atoms: _146  and  _147
REMARK   64  A    between atoms: _146  and  _149
REMARK   65  A    between atoms: _153  and  _154
REMARK   66  A    between atoms: _159  and  _161
REMARK   67  A    between atoms: _161  and  _162
REMARK   68  A    between atoms: _161  and  _164
REMARK   69  A    between atoms: _164  and  _165
REMARK   70  A    between atoms: _170  and  _171
REMARK   71  A    between atoms: _173  and  _175
REMARK   72  A    between atoms: _175  and  _176
REMARK   73  A    between atoms: _175  and  _178
REMARK   74  A    between atoms: _178  and  _179
REMARK   75  A    between atoms: _182  and  _184
REMARK   76  A    between atoms: _184  and  _185
REMARK   77  A    between atoms: _184  and  _187
REMARK   78  A    between atoms: _187  and  _188
REMARK   79  A    between atoms: _188  and  _189
REMARK   80  A    between atoms: _194  and  _196
REMARK   81  A    between atoms: _196  and  _197
REMARK   82  A    between atoms: _199  and  _201
REMARK   83  A    between atoms: _201  and  _202
REMARK   84  A    between atoms: _201  and  _204
REMARK   85  A    between atoms: _204  and  _205
REMARK   86  A    between atoms: _205  and  _206
REMARK   87  A    between atoms: _206  and  _207
REMARK   88  A    between atoms: _207  and  _208
REMARK   89  A    between atoms: _212  and  _214
REMARK   90  A    between atoms: _214  and  _215
REMARK   91  A    between atoms: _214  and  _217
REMARK   92  A    between atoms: _217  and  _218
REMARK   93  A    between atoms: _228  and  _230
REMARK   94  A    between atoms: _230  and  _231
REMARK   95  A    between atoms: _230  and  _233
REMARK   96  A    between atoms: _233  and  _234
REMARK   97  A    between atoms: _237  and  _239
REMARK   98  A    between atoms: _239  and  _240
REMARK   99  A    between atoms: _239  and  _242
REMARK  100  A    between atoms: _242  and  _243
REMARK  101  A    between atoms: _243  and  _244
REMARK  102  A    between atoms: _244  and  _245
REMARK  103  A    between atoms: _245  and  _246
REMARK  104  A    between atoms: _250  and  _252
REMARK  105  A    between atoms: _252  and  _253
REMARK  106  A    between atoms: _252  and  _255
REMARK  107  A    between atoms: _255  and  _256
REMARK  108  A    between atoms: _262  and  _264
REMARK  109  A    between atoms: _264  and  _265
REMARK  110  A    between atoms: _264  and  _267
REMARK  111  A    between atoms: _267  and  _268
REMARK  112  A    between atoms: _274  and  _276
REMARK  113  A    between atoms: _276  and  _277
REMARK  114  A    between atoms: _276  and  _279
REMARK  115  A    between atoms: _279  and  _280
REMARK  116  A    between atoms: _283  and  _285
REMARK  117  A    between atoms: _285  and  _286
REMARK  118  A    between atoms: _285  and  _288
REMARK  119  A    between atoms: _288  and  _289
REMARK  120  A    between atoms: _291  and  _293
REMARK  121  A    between atoms: _293  and  _294
REMARK  122  A    between atoms: _293  and  _296
REMARK  123  A    between atoms: _296  and  _297
REMARK  124  A    between atoms: _307  and  _309
REMARK  125  A    between atoms: _309  and  _310
REMARK  126  A    between atoms: _312  and  _314
REMARK  127  A    between atoms: _314  and  _315
REMARK  128  A    between atoms: _314  and  _317
REMARK  129  A    between atoms: _317  and  _318
REMARK  130  A    between atoms: _321  and  _323
REMARK  131  A    between atoms: _323  and  _324
REMARK  132  A    between atoms: _323  and  _326
REMARK  133  A    between atoms: _326  and  _327
REMARK  134  A    between atoms: _330  and  _332
REMARK  135  A    between atoms: _332  and  _333
REMARK  136  A    between atoms: _332  and  _335
REMARK  137  A    between atoms: _335  and  _336
REMARK  138  A    between atoms: _339  and  _341
REMARK  139  A    between atoms: _341  and  _342
REMARK  140  A    between atoms: _345  and  _347
REMARK  141  A    between atoms: _347  and  _348
REMARK  142  A    between atoms: _347  and  _350
REMARK  143  A    between atoms: _350  and  _351
REMARK  144  A    between atoms: _356  and  _357
REMARK  145  A    between atoms: _359  and  _361
REMARK  146  A    between atoms: _361  and  _362
REMARK  147  A    between atoms: _361  and  _364
REMARK  148  A    between atoms: _364  and  _365
REMARK  149  A    between atoms: _365  and  _366
REMARK  150  A    between atoms: _369  and  _371
REMARK  151  A    between atoms: _371  and  _372
REMARK  152  A    between atoms: _371  and  _374
REMARK  153  A    between atoms: _374  and  _375
REMARK  154  A    between atoms: _378  and  _380
REMARK  155  A    between atoms: _380  and  _381
REMARK  156  A    between atoms: _384  and  _386
REMARK  157  A    between atoms: _386  and  _387
REMARK  158  A    between atoms: _386  and  _389
REMARK  159  A    between atoms: _389  and  _390
REMARK  160  A    between atoms: _390  and  _391
REMARK  161  A    between atoms: _391  and  _392
REMARK  162  A    between atoms: _401  and  _403
REMARK  163  A    between atoms: _403  and  _404
REMARK  164  A    between atoms: _403  and  _406
REMARK  165  A    between atoms: _406  and  _407
REMARK  166  A    between atoms: _410  and  _412
REMARK  167  A    between atoms: _412  and  _413
REMARK  168  A    between atoms: _412  and  _415
REMARK  169  A    between atoms: _415  and  _416
REMARK  170  A    between atoms: _426  and  _428
REMARK  171  A    between atoms: _428  and  _429
REMARK  172  A    between atoms: _428  and  _431
REMARK  173  A    between atoms: _431  and  _432
REMARK  174  A    between atoms: _437  and  _438
REMARK  175  A    between atoms: _440  and  _442
REMARK  176  A    between atoms: _442  and  _443
REMARK  177  A    between atoms: _442  and  _445
REMARK  178  A    between atoms: _445  and  _446
REMARK  179  A    between atoms: _451  and  _452
REMARK  180  A    between atoms: _454  and  _456
REMARK  181  A    between atoms: _456  and  _457
REMARK  182  A    between atoms: _456  and  _459
REMARK  183  A    between atoms: _459  and  _460
REMARK  184  A    between atoms: _460  and  _461
REMARK  185  A    between atoms: _461  and  _462
REMARK  186  A    between atoms: _462  and  _463
REMARK  187  A    between atoms: _467  and  _469
REMARK  188  A    between atoms: _469  and  _470
REMARK  189  A    between atoms: _469  and  _472
REMARK  190  A    between atoms: _472  and  _473
REMARK  191  A    between atoms: _476  and  _478
REMARK  192  A    between atoms: _478  and  _479
REMARK  193  A    between atoms: _478  and  _481
REMARK  194  A    between atoms: _484  and  _486
REMARK  195  A    between atoms: _486  and  _487
REMARK  196  A    between atoms: _486  and  _489
REMARK  197  A    between atoms: _489  and  _490
REMARK  198  A    between atoms: _493  and  _495
REMARK  199  A    between atoms: _495  and  _496
REMARK  200  A    between atoms: _495  and  _498
REMARK  201  A    between atoms: _498  and  _499
REMARK  202  A    between atoms: _501  and  _503
REMARK  203  A    between atoms: _503  and  _504
REMARK  204  A    between atoms: _506  and  _508
REMARK  205  A    between atoms: _508  and  _509
REMARK  206  A    between atoms: _508  and  _511
REMARK  207  A    between atoms: _511  and  _512
REMARK  208  A    between atoms: _515  and  _517
REMARK  209  A    between atoms: _517  and  _518
REMARK  210  A    between atoms: _517  and  _520
REMARK  211  A    between atoms: _520  and  _521
REMARK  212  A    between atoms: _524  and  _526
REMARK  213  A    between atoms: _526  and  _527
REMARK  214  A    between atoms: _526  and  _529
REMARK  215  A    between atoms: _529  and  _530
REMARK  216  A    between atoms: _535  and  _537
REMARK  217  A    between atoms: _537  and  _538
REMARK  218  A    between atoms: _537  and  _540
REMARK  219  A    between atoms: _540  and  _541
REMARK  220  A    between atoms: _544  and  _546
REMARK  221  A    between atoms: _546  and  _547
REMARK  222  A    between atoms: _546  and  _549
REMARK  223  A    between atoms: _549  and  _550
REMARK  224  A    between atoms: _550  and  _551
REMARK  225  A    between atoms: _551  and  _552
REMARK  226  A    between atoms: _561  and  _563
REMARK  227  A    between atoms: _563  and  _564
REMARK  228  A    between atoms: _563  and  _566
REMARK  229  A    between atoms: _566  and  _567
REMARK  230  A    between atoms: _570  and  _572
REMARK  231  A    between atoms: _572  and  _573
REMARK  232  A    between atoms: _572  and  _575
REMARK  233  A    between atoms: _575  and  _576
REMARK  234  A    between atoms: _579  and  _581
REMARK  235  A    between atoms: _581  and  _582
REMARK  236  A    between atoms: _584  and  _586
REMARK  237  A    between atoms: _586  and  _587
REMARK  238  A    between atoms: _586  and  _589
REMARK  239  A    between atoms: _589  and  _590
REMARK  240  A    between atoms: _590  and  _591
REMARK  241  A    between atoms: _591  and  _592
REMARK  242  A    between atoms: _601  and  _603
REMARK  243  A    between atoms: _603  and  _604
REMARK  244  A    between atoms: _603  and  _606
REMARK  245  A    between atoms: _606  and  _607
REMARK  246  A    between atoms: _613  and  _615
REMARK  247  A    between atoms: _615  and  _616
REMARK  248  A    between atoms: _619  and  _621
REMARK  249  A    between atoms: _621  and  _622
REMARK  250  A    between atoms: _621  and  _624
REMARK  251  A    between atoms: _624  and  _625
REMARK  252  A    between atoms: _628  and  _630
REMARK  253  A    between atoms: _630  and  _631
REMARK  254  A    between atoms: _630  and  _633
REMARK  255  A    between atoms: _633  and  _634
REMARK  256  A    between atoms: _636  and  _638
REMARK  257  A    between atoms: _638  and  _639
REMARK  258  A    between atoms: _638  and  _641
REMARK  259  A    between atoms: _641  and  _642
REMARK  260  A    between atoms: _642  and  _643
REMARK  261  A    between atoms: _648  and  _650
REMARK  262  A    between atoms: _650  and  _651
REMARK  263  A    between atoms: _650  and  _653
REMARK  264  A    between atoms: _653  and  _654
REMARK  265  A    between atoms: _656  and  _658
REMARK  266  A    between atoms: _658  and  _659
REMARK  267  A    between atoms: _658  and  _661
REMARK  268  A    between atoms: _661  and  _662
REMARK  269  A    between atoms: _665  and  _667
REMARK  270  A    between atoms: _667  and  _668
REMARK  271  A    between atoms: _667  and  _670
REMARK  272  A    between atoms: _670  and  _671
REMARK  273  A    between atoms: _674  and  _676
REMARK  274  A    between atoms: _676  and  _677
REMARK  275  A    between atoms: _676  and  _679
REMARK  276  A    between atoms: _682  and  _684
REMARK  277  A    between atoms: _684  and  _685
REMARK  278  A    between atoms: _684  and  _687
REMARK  279  A    between atoms: _687  and  _688
REMARK  280  A    between atoms: _688  and  _689
REMARK  281  A    between atoms: _691  and  _693
REMARK  282  A    between atoms: _693  and  _694
REMARK  283  A    between atoms: _696  and  _698
REMARK  284  A    between atoms: _698  and  _699
REMARK  285  A    between atoms: _702  and  _704
REMARK  286  A    between atoms: _704  and  _705
REMARK  287  A    between atoms: _704  and  _707
REMARK  288  A    between atoms: _710  and  _712
REMARK  289  A    between atoms: _712  and  _713
REMARK  290  A    between atoms: _712  and  _715
REMARK  291  A    between atoms: _715  and  _716
REMARK  292  A    between atoms: _716  and  _717
REMARK  293  A    between atoms: _719  and  _721
REMARK  294  A    between atoms: _721  and  _722
REMARK  295  A    between atoms: _721  and  _724
REMARK  296  A    between atoms: _724  and  _725
REMARK  297  A    between atoms: _725  and  _726
REMARK                            x       y       z     vdW  Elec       q    Type
REMARK                         _______ _______ _______ _____ _____    ______ ____
ROOT
ATOM      1  O   HOH     1      -0.209   2.632  24.156  0.00  0.00    +0.000 OA
ENDROOT
TORSDOF 0
REMARK  Name = ../refined-set-2016/2p4j/2p4j_pocket.pdb
REMARK  297 active torsions:
REMARK  status: ('A' for Active; 'I' for Inactive)
REMARK    1  A    between atoms: _1  and  _3
REMARK    2  A    between atoms: _3  and  _4
REMARK    3  A    between atoms: _6  and  _8
REMARK    4  A    between atoms: _8  and  _9
REMARK    5  A    between atoms: _8  and  _11
REMARK    6  A    between atoms: _11  and  _12
REMARK    7  A    between atoms: _12  and  _13
REMARK    8  A    between atoms: _13  and  _14
REMARK    9  A    between atoms: _14  and  _15
REMARK   10  A    between atoms: _19  and  _21
REMARK   11  A    between atoms: _21  and  _22
REMARK   12  A    between atoms: _21  and  _24
REMARK   13  A    between atoms: _24  and  _25
REMARK   14  A    between atoms: _27  and  _29
REMARK   15  A    between atoms: _29  and  _30
REMARK   16  A    between atoms: _32  and  _34
REMARK   17  A    between atoms: _34  and  _35
REMARK   18  A    between atoms: _34  and  _37
REMARK   19  A    between atoms: _37  and  _38
REMARK   20  A    between atoms: _38  and  _39
REMARK   21  A    between atoms: _44  and  _46
REMARK   22  A    between atoms: _46  and  _47
REMARK   23  A    between atoms: _49  and  _51
REMARK   24  A    between atoms: _51  and  _52
REMARK   25  A    between atoms: _51  and  _54
REMARK   26  A    between atoms: _54  and  _55
REMARK   27  A    between atoms: _60  and  _61
REMARK   28  A    between atoms: _63  and  _65
REMARK   29  A    between atoms: _65  and  _66
REMARK   30  A    between atoms: _65  and  _68
REMARK   31  A    between atoms: _68  and  _69
REMARK   32  A    between atoms: _72  and  _74
REMARK   33  A    between atoms: _74  and  _75
REMARK   34  A    between atoms: _74  and  _77
REMARK   35  A    between atoms: _80  and  _82
REMARK   36  A    between atoms: _82  and  _83
REMARK   37  A    between atoms: _82  and  _85
REMARK   38  A    between atoms: _85  and  _86
REMARK   39  A    between atoms: _89  and  _91
REMARK   40  A    between atoms: _91  and  _92
REMARK   41  A    between atoms: _91  and  _94
REMARK   42  A    between atoms: _94  and  _95
REMARK   43  A    between atoms: _98  and  _100
REMARK   44  A    between atoms: _100  and  _101
REMARK   45  A    between atoms: _103  and  _105
REMARK   46  A    between atoms: _105  and  _106
REMARK   47  A    between atoms: _105  and  _108
REMARK   48  A    between atoms: _108  and  _109
REMARK   49  A    between atoms: _111  and  _113
REMARK   50  A    between atoms: _113  and  _114
REMARK   51  A    between atoms: _113  and  _116
REMARK   52  A    between atoms: _116  and  _117
REMARK   53  A    between atoms: _119  and  _121
REMARK   54  A    between atoms: _121  and  _122
REMARK   55  A    between atoms: _121  and  _124
REMARK   56  A    between atoms: _124  and  _125
REMARK   57  A    between atoms: _130  and  _132
REMARK   58  A    between atoms: _132  and  _133
REMARK   59  A    between atoms: _132  and  _135
REMARK   60  A    between atoms: _135  and  _136
REMARK   61  A    between atoms: _141  and  _142
REMARK   62  A    between atoms: _144  and  _146
REMARK   63  A    between atoms: _146  and  _147
REMARK   64  A    between atoms: _146  and  _149
REMARK   65  A    between atoms: _153  and  _154
REMARK   66  A    between atoms: _159  and  _161
REMARK   67  A    between atoms: _161  and  _162
REMARK   68  A    between atoms: _161  and  _164
REMARK   69  A    between atoms: _164  and  _165
REMARK   70  A    between atoms: _170  and  _171
REMARK   71  A    between atoms: _173  and  _175
REMARK   72  A    between atoms: _175  and  _176
REMARK   73  A    between atoms: _175  and  _178
REMARK   74  A    between atoms: _178  and  _179
REMARK   75  A    between atoms: _182  and  _184
REMARK   76  A    between atoms: _184  and  _185
REMARK   77  A    between atoms: _184  and  _187
REMARK   78  A    between atoms: _187  and  _188
REMARK   79  A    between atoms: _188  and  _189
REMARK   80  A    between atoms: _194  and  _196
REMARK   81  A    between atoms: _196  and  _197
REMARK   82  A    between atoms: _199  and  _201
REMARK   83  A    between atoms: _201  and  _202
REMARK   84  A    between atoms: _201  and  _204
REMARK   85  A    between atoms: _204  and  _205
REMARK   86  A    between atoms: _205  and  _206
REMARK   87  A    between atoms: _206  and  _207
REMARK   88  A    between atoms: _207  and  _208
REMARK   89  A    between atoms: _212  and  _214
REMARK   90  A    between atoms: _214  and  _215
REMARK   91  A    between atoms: _214  and  _217
REMARK   92  A    between atoms: _217  and  _218
REMARK   93  A    between atoms: _228  and  _230
REMARK   94  A    between atoms: _230  and  _231
REMARK   95  A    between atoms: _230  and  _233
REMARK   96  A    between atoms: _233  and  _234
REMARK   97  A    between atoms: _237  and  _239
REMARK   98  A    between atoms: _239  and  _240
REMARK   99  A    between atoms: _239  and  _242
REMARK  100  A    between atoms: _242  and  _243
REMARK  101  A    between atoms: _243  and  _244
REMARK  102  A    between atoms: _244  and  _245
REMARK  103  A    between atoms: _245  and  _246
REMARK  104  A    between atoms: _250  and  _252
REMARK  105  A    between atoms: _252  and  _253
REMARK  106  A    between atoms: _252  and  _255
REMARK  107  A    between atoms: _255  and  _256
REMARK  108  A    between atoms: _262  and  _264
REMARK  109  A    between atoms: _264  and  _265
REMARK  110  A    between atoms: _264  and  _267
REMARK  111  A    between atoms: _267  and  _268
REMARK  112  A    between atoms: _274  and  _276
REMARK  113  A    between atoms: _276  and  _277
REMARK  114  A    between atoms: _276  and  _279
REMARK  115  A    between atoms: _279  and  _280
REMARK  116  A    between atoms: _283  and  _285
REMARK  117  A    between atoms: _285  and  _286
REMARK  118  A    between atoms: _285  and  _288
REMARK  119  A    between atoms: _288  and  _289
REMARK  120  A    between atoms: _291  and  _293
REMARK  121  A    between atoms: _293  and  _294
REMARK  122  A    between atoms: _293  and  _296
REMARK  123  A    between atoms: _296  and  _297
REMARK  124  A    between atoms: _307  and  _309
REMARK  125  A    between atoms: _309  and  _310
REMARK  126  A    between atoms: _312  and  _314
REMARK  127  A    between atoms: _314  and  _315
REMARK  128  A    between atoms: _314  and  _317
REMARK  129  A    between atoms: _317  and  _318
REMARK  130  A    between atoms: _321  and  _323
REMARK  131  A    between atoms: _323  and  _324
REMARK  132  A    between atoms: _323  and  _326
REMARK  133  A    between atoms: _326  and  _327
REMARK  134  A    between atoms: _330  and  _332
REMARK  135  A    between atoms: _332  and  _333
REMARK  136  A    between atoms: _332  and  _335
REMARK  137  A    between atoms: _335  and  _336
REMARK  138  A    between atoms: _339  and  _341
REMARK  139  A    between atoms: _341  and  _342
REMARK  140  A    between atoms: _345  and  _347
REMARK  141  A    between atoms: _347  and  _348
REMARK  142  A    between atoms: _347  and  _350
REMARK  143  A    between atoms: _350  and  _351
REMARK  144  A    between atoms: _356  and  _357
REMARK  145  A    between atoms: _359  and  _361
REMARK  146  A    between atoms: _361  and  _362
REMARK  147  A    between atoms: _361  and  _364
REMARK  148  A    between atoms: _364  and  _365
REMARK  149  A    between atoms: _365  and  _366
REMARK  150  A    between atoms: _369  and  _371
REMARK  151  A    between atoms: _371  and  _372
REMARK  152  A    between atoms: _371  and  _374
REMARK  153  A    between atoms: _374  and  _375
REMARK  154  A    between atoms: _378  and  _380
REMARK  155  A    between atoms: _380  and  _381
REMARK  156  A    between atoms: _384  and  _386
REMARK  157  A    between atoms: _386  and  _387
REMARK  158  A    between atoms: _386  and  _389
REMARK  159  A    between atoms: _389  and  _390
REMARK  160  A    between atoms: _390  and  _391
REMARK  161  A    between atoms: _391  and  _392
REMARK  162  A    between atoms: _401  and  _403
REMARK  163  A    between atoms: _403  and  _404
REMARK  164  A    between atoms: _403  and  _406
REMARK  165  A    between atoms: _406  and  _407
REMARK  166  A    between atoms: _410  and  _412
REMARK  167  A    between atoms: _412  and  _413
REMARK  168  A    between atoms: _412  and  _415
REMARK  169  A    between atoms: _415  and  _416
REMARK  170  A    between atoms: _426  and  _428
REMARK  171  A    between atoms: _428  and  _429
REMARK  172  A    between atoms: _428  and  _431
REMARK  173  A    between atoms: _431  and  _432
REMARK  174  A    between atoms: _437  and  _438
REMARK  175  A    between atoms: _440  and  _442
REMARK  176  A    between atoms: _442  and  _443
REMARK  177  A    between atoms: _442  and  _445
REMARK  178  A    between atoms: _445  and  _446
REMARK  179  A    between atoms: _451  and  _452
REMARK  180  A    between atoms: _454  and  _456
REMARK  181  A    between atoms: _456  and  _457
REMARK  182  A    between atoms: _456  and  _459
REMARK  183  A    between atoms: _459  and  _460
REMARK  184  A    between atoms: _460  and  _461
REMARK  185  A    between atoms: _461  and  _462
REMARK  186  A    between atoms: _462  and  _463
REMARK  187  A    between atoms: _467  and  _469
REMARK  188  A    between atoms: _469  and  _470
REMARK  189  A    between atoms: _469  and  _472
REMARK  190  A    between atoms: _472  and  _473
REMARK  191  A    between atoms: _476  and  _478
REMARK  192  A    between atoms: _478  and  _479
REMARK  193  A    between atoms: _478  and  _481
REMARK  194  A    between atoms: _484  and  _486
REMARK  195  A    between atoms: _486  and  _487
REMARK  196  A    between atoms: _486  and  _489
REMARK  197  A    between atoms: _489  and  _490
REMARK  198  A    between atoms: _493  and  _495
REMARK  199  A    between atoms: _495  and  _496
REMARK  200  A    between atoms: _495  and  _498
REMARK  201  A    between atoms: _498  and  _499
REMARK  202  A    between atoms: _501  and  _503
REMARK  203  A    between atoms: _503  and  _504
REMARK  204  A    between atoms: _506  and  _508
REMARK  205  A    between atoms: _508  and  _509
REMARK  206  A    between atoms: _508  and  _511
REMARK  207  A    between atoms: _511  and  _512
REMARK  208  A    between atoms: _515  and  _517
REMARK  209  A    between atoms: _517  and  _518
REMARK  210  A    between atoms: _517  and  _520
REMARK  211  A    between atoms: _520  and  _521
REMARK  212  A    between atoms: _524  and  _526
REMARK  213  A    between atoms: _526  and  _527
REMARK  214  A    between atoms: _526  and  _529
REMARK  215  A    between atoms: _529  and  _530
REMARK  216  A    between atoms: _535  and  _537
REMARK  217  A    between atoms: _537  and  _538
REMARK  218  A    between atoms: _537  and  _540
REMARK  219  A    between atoms: _540  and  _541
REMARK  220  A    between atoms: _544  and  _546
REMARK  221  A    between atoms: _546  and  _547
REMARK  222  A    between atoms: _546  and  _549
REMARK  223  A    between atoms: _549  and  _550
REMARK  224  A    between atoms: _550  and  _551
REMARK  225  A    between atoms: _551  and  _552
REMARK  226  A    between atoms: _561  and  _563
REMARK  227  A    between atoms: _563  and  _564
REMARK  228  A    between atoms: _563  and  _566
REMARK  229  A    between atoms: _566  and  _567
REMARK  230  A    between atoms: _570  and  _572
REMARK  231  A    between atoms: _572  and  _573
REMARK  232  A    between atoms: _572  and  _575
REMARK  233  A    between atoms: _575  and  _576
REMARK  234  A    between atoms: _579  and  _581
REMARK  235  A    between atoms: _581  and  _582
REMARK  236  A    between atoms: _584  and  _586
REMARK  237  A    between atoms: _586  and  _587
REMARK  238  A    between atoms: _586  and  _589
REMARK  239  A    between atoms: _589  and  _590
REMARK  240  A    between atoms: _590  and  _591
REMARK  241  A    between atoms: _591  and  _592
REMARK  242  A    between atoms: _601  and  _603
REMARK  243  A    between atoms: _603  and  _604
REMARK  244  A    between atoms: _603  and  _606
REMARK  245  A    between atoms: _606  and  _607
REMARK  246  A    between atoms: _613  and  _615
REMARK  247  A    between atoms: _615  and  _616
REMARK  248  A    between atoms: _619  and  _621
REMARK  249  A    between atoms: _621  and  _622
REMARK  250  A    between atoms: _621  and  _624
REMARK  251  A    between atoms: _624  and  _625
REMARK  252  A    between atoms: _628  and  _630
REMARK  253  A    between atoms: _630  and  _631
REMARK  254  A    between atoms: _630  and  _633
REMARK  255  A    between atoms: _633  and  _634
REMARK  256  A    between atoms: _636  and  _638
REMARK  257  A    between atoms: _638  and  _639
REMARK  258  A    between atoms: _638  and  _641
REMARK  259  A    between atoms: _641  and  _642
REMARK  260  A    between atoms: _642  and  _643
REMARK  261  A    between atoms: _648  and  _650
REMARK  262  A    between atoms: _650  and  _651
REMARK  263  A    between atoms: _650  and  _653
REMARK  264  A    between atoms: _653  and  _654
REMARK  265  A    between atoms: _656  and  _658
REMARK  266  A    between atoms: _658  and  _659
REMARK  267  A    between atoms: _658  and  _661
REMARK  268  A    between atoms: _661  and  _662
REMARK  269  A    between atoms: _665  and  _667
REMARK  270  A    between atoms: _667  and  _668
REMARK  271  A    between atoms: _667  and  _670
REMARK  272  A    between atoms: _670  and  _671
REMARK  273  A    between atoms: _674  and  _676
REMARK  274  A    between atoms: _676  and  _677
REMARK  275  A    between atoms: _676  and  _679
REMARK  276  A    between atoms: _682  and  _684
REMARK  277  A    between atoms: _684  and  _685
REMARK  278  A    between atoms: _684  and  _687
REMARK  279  A    between atoms: _687  and  _688
REMARK  280  A    between atoms: _688  and  _689
REMARK  281  A    between atoms: _691  and  _693
REMARK  282  A    between atoms: _693  and  _694
REMARK  283  A    between atoms: _696  and  _698
REMARK  284  A    between atoms: _698  and  _699
REMARK  285  A    between atoms: _702  and  _704
REMARK  286  A    between atoms: _704  and  _705
REMARK  287  A    between atoms: _704  and  _707
REMARK  288  A    between atoms: _710  and  _712
REMARK  289  A    between atoms: _712  and  _713
REMARK  290  A    between atoms: _712  and  _715
REMARK  291  A    between atoms: _715  and  _716
REMARK  292  A    between atoms: _716  and  _717
REMARK  293  A    between atoms: _719  and  _721
REMARK  294  A    between atoms: _721  and  _722
REMARK  295  A    between atoms: _721  and  _724
REMARK  296  A    between atoms: _724  and  _725
REMARK  297  A    between atoms: _725  and  _726
REMARK                            x       y       z     vdW  Elec       q    Type
REMARK                         _______ _______ _______ _____ _____    ______ ____
ROOT
ATOM      1  O   HOH     1       7.450  -6.238  36.066  0.00  0.00    +0.000 OA
ENDROOT
TORSDOF 0
REMARK  Name = ../refined-set-2016/2p4j/2p4j_pocket.pdb
REMARK  297 active torsions:
REMARK  status: ('A' for Active; 'I' for Inactive)
REMARK    1  A    between atoms: _1  and  _3
REMARK    2  A    between atoms: _3  and  _4
REMARK    3  A    between atoms: _6  and  _8
REMARK    4  A    between atoms: _8  and  _9
REMARK    5  A    between atoms: _8  and  _11
REMARK    6  A    between atoms: _11  and  _12
REMARK    7  A    between atoms: _12  and  _13
REMARK    8  A    between atoms: _13  and  _14
REMARK    9  A    between atoms: _14  and  _15
REMARK   10  A    between atoms: _19  and  _21
REMARK   11  A    between atoms: _21  and  _22
REMARK   12  A    between atoms: _21  and  _24
REMARK   13  A    between atoms: _24  and  _25
REMARK   14  A    between atoms: _27  and  _29
REMARK   15  A    between atoms: _29  and  _30
REMARK   16  A    between atoms: _32  and  _34
REMARK   17  A    between atoms: _34  and  _35
REMARK   18  A    between atoms: _34  and  _37
REMARK   19  A    between atoms: _37  and  _38
REMARK   20  A    between atoms: _38  and  _39
REMARK   21  A    between atoms: _44  and  _46
REMARK   22  A    between atoms: _46  and  _47
REMARK   23  A    between atoms: _49  and  _51
REMARK   24  A    between atoms: _51  and  _52
REMARK   25  A    between atoms: _51  and  _54
REMARK   26  A    between atoms: _54  and  _55
REMARK   27  A    between atoms: _60  and  _61
REMARK   28  A    between atoms: _63  and  _65
REMARK   29  A    between atoms: _65  and  _66
REMARK   30  A    between atoms: _65  and  _68
REMARK   31  A    between atoms: _68  and  _69
REMARK   32  A    between atoms: _72  and  _74
REMARK   33  A    between atoms: _74  and  _75
REMARK   34  A    between atoms: _74  and  _77
REMARK   35  A    between atoms: _80  and  _82
REMARK   36  A    between atoms: _82  and  _83
REMARK   37  A    between atoms: _82  and  _85
REMARK   38  A    between atoms: _85  and  _86
REMARK   39  A    between atoms: _89  and  _91
REMARK   40  A    between atoms: _91  and  _92
REMARK   41  A    between atoms: _91  and  _94
REMARK   42  A    between atoms: _94  and  _95
REMARK   43  A    between atoms: _98  and  _100
REMARK   44  A    between atoms: _100  and  _101
REMARK   45  A    between atoms: _103  and  _105
REMARK   46  A    between atoms: _105  and  _106
REMARK   47  A    between atoms: _105  and  _108
REMARK   48  A    between atoms: _108  and  _109
REMARK   49  A    between atoms: _111  and  _113
REMARK   50  A    between atoms: _113  and  _114
REMARK   51  A    between atoms: _113  and  _116
REMARK   52  A    between atoms: _116  and  _117
REMARK   53  A    between atoms: _119  and  _121
REMARK   54  A    between atoms: _121  and  _122
REMARK   55  A    between atoms: _121  and  _124
REMARK   56  A    between atoms: _124  and  _125
REMARK   57  A    between atoms: _130  and  _132
REMARK   58  A    between atoms: _132  and  _133
REMARK   59  A    between atoms: _132  and  _135
REMARK   60  A    between atoms: _135  and  _136
REMARK   61  A    between atoms: _141  and  _142
REMARK   62  A    between atoms: _144  and  _146
REMARK   63  A    between atoms: _146  and  _147
REMARK   64  A    between atoms: _146  and  _149
REMARK   65  A    between atoms: _153  and  _154
REMARK   66  A    between atoms: _159  and  _161
REMARK   67  A    between atoms: _161  and  _162
REMARK   68  A    between atoms: _161  and  _164
REMARK   69  A    between atoms: _164  and  _165
REMARK   70  A    between atoms: _170  and  _171
REMARK   71  A    between atoms: _173  and  _175
REMARK   72  A    between atoms: _175  and  _176
REMARK   73  A    between atoms: _175  and  _178
REMARK   74  A    between atoms: _178  and  _179
REMARK   75  A    between atoms: _182  and  _184
REMARK   76  A    between atoms: _184  and  _185
REMARK   77  A    between atoms: _184  and  _187
REMARK   78  A    between atoms: _187  and  _188
REMARK   79  A    between atoms: _188  and  _189
REMARK   80  A    between atoms: _194  and  _196
REMARK   81  A    between atoms: _196  and  _197
REMARK   82  A    between atoms: _199  and  _201
REMARK   83  A    between atoms: _201  and  _202
REMARK   84  A    between atoms: _201  and  _204
REMARK   85  A    between atoms: _204  and  _205
REMARK   86  A    between atoms: _205  and  _206
REMARK   87  A    between atoms: _206  and  _207
REMARK   88  A    between atoms: _207  and  _208
REMARK   89  A    between atoms: _212  and  _214
REMARK   90  A    between atoms: _214  and  _215
REMARK   91  A    between atoms: _214  and  _217
REMARK   92  A    between atoms: _217  and  _218
REMARK   93  A    between atoms: _228  and  _230
REMARK   94  A    between atoms: _230  and  _231
REMARK   95  A    between atoms: _230  and  _233
REMARK   96  A    between atoms: _233  and  _234
REMARK   97  A    between atoms: _237  and  _239
REMARK   98  A    between atoms: _239  and  _240
REMARK   99  A    between atoms: _239  and  _242
REMARK  100  A    between atoms: _242  and  _243
REMARK  101  A    between atoms: _243  and  _244
REMARK  102  A    between atoms: _244  and  _245
REMARK  103  A    between atoms: _245  and  _246
REMARK  104  A    between atoms: _250  and  _252
REMARK  105  A    between atoms: _252  and  _253
REMARK  106  A    between atoms: _252  and  _255
REMARK  107  A    between atoms: _255  and  _256
REMARK  108  A    between atoms: _262  and  _264
REMARK  109  A    between atoms: _264  and  _265
REMARK  110  A    between atoms: _264  and  _267
REMARK  111  A    between atoms: _267  and  _268
REMARK  112  A    between atoms: _274  and  _276
REMARK  113  A    between atoms: _276  and  _277
REMARK  114  A    between atoms: _276  and  _279
REMARK  115  A    between atoms: _279  and  _280
REMARK  116  A    between atoms: _283  and  _285
REMARK  117  A    between atoms: _285  and  _286
REMARK  118  A    between atoms: _285  and  _288
REMARK  119  A    between atoms: _288  and  _289
REMARK  120  A    between atoms: _291  and  _293
REMARK  121  A    between atoms: _293  and  _294
REMARK  122  A    between atoms: _293  and  _296
REMARK  123  A    between atoms: _296  and  _297
REMARK  124  A    between atoms: _307  and  _309
REMARK  125  A    between atoms: _309  and  _310
REMARK  126  A    between atoms: _312  and  _314
REMARK  127  A    between atoms: _314  and  _315
REMARK  128  A    between atoms: _314  and  _317
REMARK  129  A    between atoms: _317  and  _318
REMARK  130  A    between atoms: _321  and  _323
REMARK  131  A    between atoms: _323  and  _324
REMARK  132  A    between atoms: _323  and  _326
REMARK  133  A    between atoms: _326  and  _327
REMARK  134  A    between atoms: _330  and  _332
REMARK  135  A    between atoms: _332  and  _333
REMARK  136  A    between atoms: _332  and  _335
REMARK  137  A    between atoms: _335  and  _336
REMARK  138  A    between atoms: _339  and  _341
REMARK  139  A    between atoms: _341  and  _342
REMARK  140  A    between atoms: _345  and  _347
REMARK  141  A    between atoms: _347  and  _348
REMARK  142  A    between atoms: _347  and  _350
REMARK  143  A    between atoms: _350  and  _351
REMARK  144  A    between atoms: _356  and  _357
REMARK  145  A    between atoms: _359  and  _361
REMARK  146  A    between atoms: _361  and  _362
REMARK  147  A    between atoms: _361  and  _364
REMARK  148  A    between atoms: _364  and  _365
REMARK  149  A    between atoms: _365  and  _366
REMARK  150  A    between atoms: _369  and  _371
REMARK  151  A    between atoms: _371  and  _372
REMARK  152  A    between atoms: _371  and  _374
REMARK  153  A    between atoms: _374  and  _375
REMARK  154  A    between atoms: _378  and  _380
REMARK  155  A    between atoms: _380  and  _381
REMARK  156  A    between atoms: _384  and  _386
REMARK  157  A    between atoms: _386  and  _387
REMARK  158  A    between atoms: _386  and  _389
REMARK  159  A    between atoms: _389  and  _390
REMARK  160  A    between atoms: _390  and  _391
REMARK  161  A    between atoms: _391  and  _392
REMARK  162  A    between atoms: _401  and  _403
REMARK  163  A    between atoms: _403  and  _404
REMARK  164  A    between atoms: _403  and  _406
REMARK  165  A    between atoms: _406  and  _407
REMARK  166  A    between atoms: _410  and  _412
REMARK  167  A    between atoms: _412  and  _413
REMARK  168  A    between atoms: _412  and  _415
REMARK  169  A    between atoms: _415  and  _416
REMARK  170  A    between atoms: _426  and  _428
REMARK  171  A    between atoms: _428  and  _429
REMARK  172  A    between atoms: _428  and  _431
REMARK  173  A    between atoms: _431  and  _432
REMARK  174  A    between atoms: _437  and  _438
REMARK  175  A    between atoms: _440  and  _442
REMARK  176  A    between atoms: _442  and  _443
REMARK  177  A    between atoms: _442  and  _445
REMARK  178  A    between atoms: _445  and  _446
REMARK  179  A    between atoms: _451  and  _452
REMARK  180  A    between atoms: _454  and  _456
REMARK  181  A    between atoms: _456  and  _457
REMARK  182  A    between atoms: _456  and  _459
REMARK  183  A    between atoms: _459  and  _460
REMARK  184  A    between atoms: _460  and  _461
REMARK  185  A    between atoms: _461  and  _462
REMARK  186  A    between atoms: _462  and  _463
REMARK  187  A    between atoms: _467  and  _469
REMARK  188  A    between atoms: _469  and  _470
REMARK  189  A    between atoms: _469  and  _472
REMARK  190  A    between atoms: _472  and  _473
REMARK  191  A    between atoms: _476  and  _478
REMARK  192  A    between atoms: _478  and  _479
REMARK  193  A    between atoms: _478  and  _481
REMARK  194  A    between atoms: _484  and  _486
REMARK  195  A    between atoms: _486  and  _487
REMARK  196  A    between atoms: _486  and  _489
REMARK  197  A    between atoms: _489  and  _490
REMARK  198  A    between atoms: _493  and  _495
REMARK  199  A    between atoms: _495  and  _496
REMARK  200  A    between atoms: _495  and  _498
REMARK  201  A    between atoms: _498  and  _499
REMARK  202  A    between atoms: _501  and  _503
REMARK  203  A    between atoms: _503  and  _504
REMARK  204  A    between atoms: _506  and  _508
REMARK  205  A    between atoms: _508  and  _509
REMARK  206  A    between atoms: _508  and  _511
REMARK  207  A    between atoms: _511  and  _512
REMARK  208  A    between atoms: _515  and  _517
REMARK  209  A    between atoms: _517  and  _518
REMARK  210  A    between atoms: _517  and  _520
REMARK  211  A    between atoms: _520  and  _521
REMARK  212  A    between atoms: _524  and  _526
REMARK  213  A    between atoms: _526  and  _527
REMARK  214  A    between atoms: _526  and  _529
REMARK  215  A    between atoms: _529  and  _530
REMARK  216  A    between atoms: _535  and  _537
REMARK  217  A    between atoms: _537  and  _538
REMARK  218  A    between atoms: _537  and  _540
REMARK  219  A    between atoms: _540  and  _541
REMARK  220  A    between atoms: _544  and  _546
REMARK  221  A    between atoms: _546  and  _547
REMARK  222  A    between atoms: _546  and  _549
REMARK  223  A    between atoms: _549  and  _550
REMARK  224  A    between atoms: _550  and  _551
REMARK  225  A    between atoms: _551  and  _552
REMARK  226  A    between atoms: _561  and  _563
REMARK  227  A    between atoms: _563  and  _564
REMARK  228  A    between atoms: _563  and  _566
REMARK  229  A    between atoms: _566  and  _567
REMARK  230  A    between atoms: _570  and  _572
REMARK  231  A    between atoms: _572  and  _573
REMARK  232  A    between atoms: _572  and  _575
REMARK  233  A    between atoms: _575  and  _576
REMARK  234  A    between atoms: _579  and  _581
REMARK  235  A    between atoms: _581  and  _582
REMARK  236  A    between atoms: _584  and  _586
REMARK  237  A    between atoms: _586  and  _587
REMARK  238  A    between atoms: _586  and  _589
REMARK  239  A    between atoms: _589  and  _590
REMARK  240  A    between atoms: _590  and  _591
REMARK  241  A    between atoms: _591  and  _592
REMARK  242  A    between atoms: _601  and  _603
REMARK  243  A    between atoms: _603  and  _604
REMARK  244  A    between atoms: _603  and  _606
REMARK  245  A    between atoms: _606  and  _607
REMARK  246  A    between atoms: _613  and  _615
REMARK  247  A    between atoms: _615  and  _616
REMARK  248  A    between atoms: _619  and  _621
REMARK  249  A    between atoms: _621  and  _622
REMARK  250  A    between atoms: _621  and  _624
REMARK  251  A    between atoms: _624  and  _625
REMARK  252  A    between atoms: _628  and  _630
REMARK  253  A    between atoms: _630  and  _631
REMARK  254  A    between atoms: _630  and  _633
REMARK  255  A    between atoms: _633  and  _634
REMARK  256  A    between atoms: _636  and  _638
REMARK  257  A    between atoms: _638  and  _639
REMARK  258  A    between atoms: _638  and  _641
REMARK  259  A    between atoms: _641  and  _642
REMARK  260  A    between atoms: _642  and  _643
REMARK  261  A    between atoms: _648  and  _650
REMARK  262  A    between atoms: _650  and  _651
REMARK  263  A    between atoms: _650  and  _653
REMARK  264  A    between atoms: _653  and  _654
REMARK  265  A    between atoms: _656  and  _658
REMARK  266  A    between atoms: _658  and  _659
REMARK  267  A    between atoms: _658  and  _661
REMARK  268  A    between atoms: _661  and  _662
REMARK  269  A    between atoms: _665  and  _667
REMARK  270  A    between atoms: _667  and  _668
REMARK  271  A    between atoms: _667  and  _670
REMARK  272  A    between atoms: _670  and  _671
REMARK  273  A    between atoms: _674  and  _676
REMARK  274  A    between atoms: _676  and  _677
REMARK  275  A    between atoms: _676  and  _679
REMARK  276  A    between atoms: _682  and  _684
REMARK  277  A    between atoms: _684  and  _685
REMARK  278  A    between atoms: _684  and  _687
REMARK  279  A    between atoms: _687  and  _688
REMARK  280  A    between atoms: _688  and  _689
REMARK  281  A    between atoms: _691  and  _693
REMARK  282  A    between atoms: _693  and  _694
REMARK  283  A    between atoms: _696  and  _698
REMARK  284  A    between atoms: _698  and  _699
REMARK  285  A    between atoms: _702  and  _704
REMARK  286  A    between atoms: _704  and  _705
REMARK  287  A    between atoms: _704  and  _707
REMARK  288  A    between atoms: _710  and  _712
REMARK  289  A    between atoms: _712  and  _713
REMARK  290  A    between atoms: _712  and  _715
REMARK  291  A    between atoms: _715  and  _716
REMARK  292  A    between atoms: _716  and  _717
REMARK  293  A    between atoms: _719  and  _721
REMARK  294  A    between atoms: _721  and  _722
REMARK  295  A    between atoms: _721  and  _724
REMARK  296  A    between atoms: _724  and  _725
REMARK  297  A    between atoms: _725  and  _726
REMARK                            x       y       z     vdW  Elec       q    Type
REMARK                         _______ _______ _______ _____ _____    ______ ____
ROOT
ATOM      1  O   HOH     1       0.532 -14.350  32.948  0.00  0.00    +0.000 OA
ENDROOT
TORSDOF 0
REMARK  Name = ../refined-set-2016/2p4j/2p4j_pocket.pdb
REMARK  297 active torsions:
REMARK  status: ('A' for Active; 'I' for Inactive)
REMARK    1  A    between atoms: _1  and  _3
REMARK    2  A    between atoms: _3  and  _4
REMARK    3  A    between atoms: _6  and  _8
REMARK    4  A    between atoms: _8  and  _9
REMARK    5  A    between atoms: _8  and  _11
REMARK    6  A    between atoms: _11  and  _12
REMARK    7  A    between atoms: _12  and  _13
REMARK    8  A    between atoms: _13  and  _14
REMARK    9  A    between atoms: _14  and  _15
REMARK   10  A    between atoms: _19  and  _21
REMARK   11  A    between atoms: _21  and  _22
REMARK   12  A    between atoms: _21  and  _24
REMARK   13  A    between atoms: _24  and  _25
REMARK   14  A    between atoms: _27  and  _29
REMARK   15  A    between atoms: _29  and  _30
REMARK   16  A    between atoms: _32  and  _34
REMARK   17  A    between atoms: _34  and  _35
REMARK   18  A    between atoms: _34  and  _37
REMARK   19  A    between atoms: _37  and  _38
REMARK   20  A    between atoms: _38  and  _39
REMARK   21  A    between atoms: _44  and  _46
REMARK   22  A    between atoms: _46  and  _47
REMARK   23  A    between atoms: _49  and  _51
REMARK   24  A    between atoms: _51  and  _52
REMARK   25  A    between atoms: _51  and  _54
REMARK   26  A    between atoms: _54  and  _55
REMARK   27  A    between atoms: _60  and  _61
REMARK   28  A    between atoms: _63  and  _65
REMARK   29  A    between atoms: _65  and  _66
REMARK   30  A    between atoms: _65  and  _68
REMARK   31  A    between atoms: _68  and  _69
REMARK   32  A    between atoms: _72  and  _74
REMARK   33  A    between atoms: _74  and  _75
REMARK   34  A    between atoms: _74  and  _77
REMARK   35  A    between atoms: _80  and  _82
REMARK   36  A    between atoms: _82  and  _83
REMARK   37  A    between atoms: _82  and  _85
REMARK   38  A    between atoms: _85  and  _86
REMARK   39  A    between atoms: _89  and  _91
REMARK   40  A    between atoms: _91  and  _92
REMARK   41  A    between atoms: _91  and  _94
REMARK   42  A    between atoms: _94  and  _95
REMARK   43  A    between atoms: _98  and  _100
REMARK   44  A    between atoms: _100  and  _101
REMARK   45  A    between atoms: _103  and  _105
REMARK   46  A    between atoms: _105  and  _106
REMARK   47  A    between atoms: _105  and  _108
REMARK   48  A    between atoms: _108  and  _109
REMARK   49  A    between atoms: _111  and  _113
REMARK   50  A    between atoms: _113  and  _114
REMARK   51  A    between atoms: _113  and  _116
REMARK   52  A    between atoms: _116  and  _117
REMARK   53  A    between atoms: _119  and  _121
REMARK   54  A    between atoms: _121  and  _122
REMARK   55  A    between atoms: _121  and  _124
REMARK   56  A    between atoms: _124  and  _125
REMARK   57  A    between atoms: _130  and  _132
REMARK   58  A    between atoms: _132  and  _133
REMARK   59  A    between atoms: _132  and  _135
REMARK   60  A    between atoms: _135  and  _136
REMARK   61  A    between atoms: _141  and  _142
REMARK   62  A    between atoms: _144  and  _146
REMARK   63  A    between atoms: _146  and  _147
REMARK   64  A    between atoms: _146  and  _149
REMARK   65  A    between atoms: _153  and  _154
REMARK   66  A    between atoms: _159  and  _161
REMARK   67  A    between atoms: _161  and  _162
REMARK   68  A    between atoms: _161  and  _164
REMARK   69  A    between atoms: _164  and  _165
REMARK   70  A    between atoms: _170  and  _171
REMARK   71  A    between atoms: _173  and  _175
REMARK   72  A    between atoms: _175  and  _176
REMARK   73  A    between atoms: _175  and  _178
REMARK   74  A    between atoms: _178  and  _179
REMARK   75  A    between atoms: _182  and  _184
REMARK   76  A    between atoms: _184  and  _185
REMARK   77  A    between atoms: _184  and  _187
REMARK   78  A    between atoms: _187  and  _188
REMARK   79  A    between atoms: _188  and  _189
REMARK   80  A    between atoms: _194  and  _196
REMARK   81  A    between atoms: _196  and  _197
REMARK   82  A    between atoms: _199  and  _201
REMARK   83  A    between atoms: _201  and  _202
REMARK   84  A    between atoms: _201  and  _204
REMARK   85  A    between atoms: _204  and  _205
REMARK   86  A    between atoms: _205  and  _206
REMARK   87  A    between atoms: _206  and  _207
REMARK   88  A    between atoms: _207  and  _208
REMARK   89  A    between atoms: _212  and  _214
REMARK   90  A    between atoms: _214  and  _215
REMARK   91  A    between atoms: _214  and  _217
REMARK   92  A    between atoms: _217  and  _218
REMARK   93  A    between atoms: _228  and  _230
REMARK   94  A    between atoms: _230  and  _231
REMARK   95  A    between atoms: _230  and  _233
REMARK   96  A    between atoms: _233  and  _234
REMARK   97  A    between atoms: _237  and  _239
REMARK   98  A    between atoms: _239  and  _240
REMARK   99  A    between atoms: _239  and  _242
REMARK  100  A    between atoms: _242  and  _243
REMARK  101  A    between atoms: _243  and  _244
REMARK  102  A    between atoms: _244  and  _245
REMARK  103  A    between atoms: _245  and  _246
REMARK  104  A    between atoms: _250  and  _252
REMARK  105  A    between atoms: _252  and  _253
REMARK  106  A    between atoms: _252  and  _255
REMARK  107  A    between atoms: _255  and  _256
REMARK  108  A    between atoms: _262  and  _264
REMARK  109  A    between atoms: _264  and  _265
REMARK  110  A    between atoms: _264  and  _267
REMARK  111  A    between atoms: _267  and  _268
REMARK  112  A    between atoms: _274  and  _276
REMARK  113  A    between atoms: _276  and  _277
REMARK  114  A    between atoms: _276  and  _279
REMARK  115  A    between atoms: _279  and  _280
REMARK  116  A    between atoms: _283  and  _285
REMARK  117  A    between atoms: _285  and  _286
REMARK  118  A    between atoms: _285  and  _288
REMARK  119  A    between atoms: _288  and  _289
REMARK  120  A    between atoms: _291  and  _293
REMARK  121  A    between atoms: _293  and  _294
REMARK  122  A    between atoms: _293  and  _296
REMARK  123  A    between atoms: _296  and  _297
REMARK  124  A    between atoms: _307  and  _309
REMARK  125  A    between atoms: _309  and  _310
REMARK  126  A    between atoms: _312  and  _314
REMARK  127  A    between atoms: _314  and  _315
REMARK  128  A    between atoms: _314  and  _317
REMARK  129  A    between atoms: _317  and  _318
REMARK  130  A    between atoms: _321  and  _323
REMARK  131  A    between atoms: _323  and  _324
REMARK  132  A    between atoms: _323  and  _326
REMARK  133  A    between atoms: _326  and  _327
REMARK  134  A    between atoms: _330  and  _332
REMARK  135  A    between atoms: _332  and  _333
REMARK  136  A    between atoms: _332  and  _335
REMARK  137  A    between atoms: _335  and  _336
REMARK  138  A    between atoms: _339  and  _341
REMARK  139  A    between atoms: _341  and  _342
REMARK  140  A    between atoms: _345  and  _347
REMARK  141  A    between atoms: _347  and  _348
REMARK  142  A    between atoms: _347  and  _350
REMARK  143  A    between atoms: _350  and  _351
REMARK  144  A    between atoms: _356  and  _357
REMARK  145  A    between atoms: _359  and  _361
REMARK  146  A    between atoms: _361  and  _362
REMARK  147  A    between atoms: _361  and  _364
REMARK  148  A    between atoms: _364  and  _365
REMARK  149  A    between atoms: _365  and  _366
REMARK  150  A    between atoms: _369  and  _371
REMARK  151  A    between atoms: _371  and  _372
REMARK  152  A    between atoms: _371  and  _374
REMARK  153  A    between atoms: _374  and  _375
REMARK  154  A    between atoms: _378  and  _380
REMARK  155  A    between atoms: _380  and  _381
REMARK  156  A    between atoms: _384  and  _386
REMARK  157  A    between atoms: _386  and  _387
REMARK  158  A    between atoms: _386  and  _389
REMARK  159  A    between atoms: _389  and  _390
REMARK  160  A    between atoms: _390  and  _391
REMARK  161  A    between atoms: _391  and  _392
REMARK  162  A    between atoms: _401  and  _403
REMARK  163  A    between atoms: _403  and  _404
REMARK  164  A    between atoms: _403  and  _406
REMARK  165  A    between atoms: _406  and  _407
REMARK  166  A    between atoms: _410  and  _412
REMARK  167  A    between atoms: _412  and  _413
REMARK  168  A    between atoms: _412  and  _415
REMARK  169  A    between atoms: _415  and  _416
REMARK  170  A    between atoms: _426  and  _428
REMARK  171  A    between atoms: _428  and  _429
REMARK  172  A    between atoms: _428  and  _431
REMARK  173  A    between atoms: _431  and  _432
REMARK  174  A    between atoms: _437  and  _438
REMARK  175  A    between atoms: _440  and  _442
REMARK  176  A    between atoms: _442  and  _443
REMARK  177  A    between atoms: _442  and  _445
REMARK  178  A    between atoms: _445  and  _446
REMARK  179  A    between atoms: _451  and  _452
REMARK  180  A    between atoms: _454  and  _456
REMARK  181  A    between atoms: _456  and  _457
REMARK  182  A    between atoms: _456  and  _459
REMARK  183  A    between atoms: _459  and  _460
REMARK  184  A    between atoms: _460  and  _461
REMARK  185  A    between atoms: _461  and  _462
REMARK  186  A    between atoms: _462  and  _463
REMARK  187  A    between atoms: _467  and  _469
REMARK  188  A    between atoms: _469  and  _470
REMARK  189  A    between atoms: _469  and  _472
REMARK  190  A    between atoms: _472  and  _473
REMARK  191  A    between atoms: _476  and  _478
REMARK  192  A    between atoms: _478  and  _479
REMARK  193  A    between atoms: _478  and  _481
REMARK  194  A    between atoms: _484  and  _486
REMARK  195  A    between atoms: _486  and  _487
REMARK  196  A    between atoms: _486  and  _489
REMARK  197  A    between atoms: _489  and  _490
REMARK  198  A    between atoms: _493  and  _495
REMARK  199  A    between atoms: _495  and  _496
REMARK  200  A    between atoms: _495  and  _498
REMARK  201  A    between atoms: _498  and  _499
REMARK  202  A    between atoms: _501  and  _503
REMARK  203  A    between atoms: _503  and  _504
REMARK  204  A    between atoms: _506  and  _508
REMARK  205  A    between atoms: _508  and  _509
REMARK  206  A    between atoms: _508  and  _511
REMARK  207  A    between atoms: _511  and  _512
REMARK  208  A    between atoms: _515  and  _517
REMARK  209  A    between atoms: _517  and  _518
REMARK  210  A    between atoms: _517  and  _520
REMARK  211  A    between atoms: _520  and  _521
REMARK  212  A    between atoms: _524  and  _526
REMARK  213  A    between atoms: _526  and  _527
REMARK  214  A    between atoms: _526  and  _529
REMARK  215  A    between atoms: _529  and  _530
REMARK  216  A    between atoms: _535  and  _537
REMARK  217  A    between atoms: _537  and  _538
REMARK  218  A    between atoms: _537  and  _540
REMARK  219  A    between atoms: _540  and  _541
REMARK  220  A    between atoms: _544  and  _546
REMARK  221  A    between atoms: _546  and  _547
REMARK  222  A    between atoms: _546  and  _549
REMARK  223  A    between atoms: _549  and  _550
REMARK  224  A    between atoms: _550  and  _551
REMARK  225  A    between atoms: _551  and  _552
REMARK  226  A    between atoms: _561  and  _563
REMARK  227  A    between atoms: _563  and  _564
REMARK  228  A    between atoms: _563  and  _566
REMARK  229  A    between atoms: _566  and  _567
REMARK  230  A    between atoms: _570  and  _572
REMARK  231  A    between atoms: _572  and  _573
REMARK  232  A    between atoms: _572  and  _575
REMARK  233  A    between atoms: _575  and  _576
REMARK  234  A    between atoms: _579  and  _581
REMARK  235  A    between atoms: _581  and  _582
REMARK  236  A    between atoms: _584  and  _586
REMARK  237  A    between atoms: _586  and  _587
REMARK  238  A    between atoms: _586  and  _589
REMARK  239  A    between atoms: _589  and  _590
REMARK  240  A    between atoms: _590  and  _591
REMARK  241  A    between atoms: _591  and  _592
REMARK  242  A    between atoms: _601  and  _603
REMARK  243  A    between atoms: _603  and  _604
REMARK  244  A    between atoms: _603  and  _606
REMARK  245  A    between atoms: _606  and  _607
REMARK  246  A    between atoms: _613  and  _615
REMARK  247  A    between atoms: _615  and  _616
REMARK  248  A    between atoms: _619  and  _621
REMARK  249  A    between atoms: _621  and  _622
REMARK  250  A    between atoms: _621  and  _624
REMARK  251  A    between atoms: _624  and  _625
REMARK  252  A    between atoms: _628  and  _630
REMARK  253  A    between atoms: _630  and  _631
REMARK  254  A    between atoms: _630  and  _633
REMARK  255  A    between atoms: _633  and  _634
REMARK  256  A    between atoms: _636  and  _638
REMARK  257  A    between atoms: _638  and  _639
REMARK  258  A    between atoms: _638  and  _641
REMARK  259  A    between atoms: _641  and  _642
REMARK  260  A    between atoms: _642  and  _643
REMARK  261  A    between atoms: _648  and  _650
REMARK  262  A    between atoms: _650  and  _651
REMARK  263  A    between atoms: _650  and  _653
REMARK  264  A    between atoms: _653  and  _654
REMARK  265  A    between atoms: _656  and  _658
REMARK  266  A    between atoms: _658  and  _659
REMARK  267  A    between atoms: _658  and  _661
REMARK  268  A    between atoms: _661  and  _662
REMARK  269  A    between atoms: _665  and  _667
REMARK  270  A    between atoms: _667  and  _668
REMARK  271  A    between atoms: _667  and  _670
REMARK  272  A    between atoms: _670  and  _671
REMARK  273  A    between atoms: _674  and  _676
REMARK  274  A    between atoms: _676  and  _677
REMARK  275  A    between atoms: _676  and  _679
REMARK  276  A    between atoms: _682  and  _684
REMARK  277  A    between atoms: _684  and  _685
REMARK  278  A    between atoms: _684  and  _687
REMARK  279  A    between atoms: _687  and  _688
REMARK  280  A    between atoms: _688  and  _689
REMARK  281  A    between atoms: _691  and  _693
REMARK  282  A    between atoms: _693  and  _694
REMARK  283  A    between atoms: _696  and  _698
REMARK  284  A    between atoms: _698  and  _699
REMARK  285  A    between atoms: _702  and  _704
REMARK  286  A    between atoms: _704  and  _705
REMARK  287  A    between atoms: _704  and  _707
REMARK  288  A    between atoms: _710  and  _712
REMARK  289  A    between atoms: _712  and  _713
REMARK  290  A    between atoms: _712  and  _715
REMARK  291  A    between atoms: _715  and  _716
REMARK  292  A    between atoms: _716  and  _717
REMARK  293  A    between atoms: _719  and  _721
REMARK  294  A    between atoms: _721  and  _722
REMARK  295  A    between atoms: _721  and  _724
REMARK  296  A    between atoms: _724  and  _725
REMARK  297  A    between atoms: _725  and  _726
REMARK                            x       y       z     vdW  Elec       q    Type
REMARK                         _______ _______ _______ _____ _____    ______ ____
ROOT
ATOM      1  O   HOH     1       5.230   4.922  21.412  0.00  0.00    +0.000 OA
ENDROOT
TORSDOF 0
REMARK  Name = ../refined-set-2016/2p4j/2p4j_pocket.pdb
REMARK  297 active torsions:
REMARK  status: ('A' for Active; 'I' for Inactive)
REMARK    1  A    between atoms: _1  and  _3
REMARK    2  A    between atoms: _3  and  _4
REMARK    3  A    between atoms: _6  and  _8
REMARK    4  A    between atoms: _8  and  _9
REMARK    5  A    between atoms: _8  and  _11
REMARK    6  A    between atoms: _11  and  _12
REMARK    7  A    between atoms: _12  and  _13
REMARK    8  A    between atoms: _13  and  _14
REMARK    9  A    between atoms: _14  and  _15
REMARK   10  A    between atoms: _19  and  _21
REMARK   11  A    between atoms: _21  and  _22
REMARK   12  A    between atoms: _21  and  _24
REMARK   13  A    between atoms: _24  and  _25
REMARK   14  A    between atoms: _27  and  _29
REMARK   15  A    between atoms: _29  and  _30
REMARK   16  A    between atoms: _32  and  _34
REMARK   17  A    between atoms: _34  and  _35
REMARK   18  A    between atoms: _34  and  _37
REMARK   19  A    between atoms: _37  and  _38
REMARK   20  A    between atoms: _38  and  _39
REMARK   21  A    between atoms: _44  and  _46
REMARK   22  A    between atoms: _46  and  _47
REMARK   23  A    between atoms: _49  and  _51
REMARK   24  A    between atoms: _51  and  _52
REMARK   25  A    between atoms: _51  and  _54
REMARK   26  A    between atoms: _54  and  _55
REMARK   27  A    between atoms: _60  and  _61
REMARK   28  A    between atoms: _63  and  _65
REMARK   29  A    between atoms: _65  and  _66
REMARK   30  A    between atoms: _65  and  _68
REMARK   31  A    between atoms: _68  and  _69
REMARK   32  A    between atoms: _72  and  _74
REMARK   33  A    between atoms: _74  and  _75
REMARK   34  A    between atoms: _74  and  _77
REMARK   35  A    between atoms: _80  and  _82
REMARK   36  A    between atoms: _82  and  _83
REMARK   37  A    between atoms: _82  and  _85
REMARK   38  A    between atoms: _85  and  _86
REMARK   39  A    between atoms: _89  and  _91
REMARK   40  A    between atoms: _91  and  _92
REMARK   41  A    between atoms: _91  and  _94
REMARK   42  A    between atoms: _94  and  _95
REMARK   43  A    between atoms: _98  and  _100
REMARK   44  A    between atoms: _100  and  _101
REMARK   45  A    between atoms: _103  and  _105
REMARK   46  A    between atoms: _105  and  _106
REMARK   47  A    between atoms: _105  and  _108
REMARK   48  A    between atoms: _108  and  _109
REMARK   49  A    between atoms: _111  and  _113
REMARK   50  A    between atoms: _113  and  _114
REMARK   51  A    between atoms: _113  and  _116
REMARK   52  A    between atoms: _116  and  _117
REMARK   53  A    between atoms: _119  and  _121
REMARK   54  A    between atoms: _121  and  _122
REMARK   55  A    between atoms: _121  and  _124
REMARK   56  A    between atoms: _124  and  _125
REMARK   57  A    between atoms: _130  and  _132
REMARK   58  A    between atoms: _132  and  _133
REMARK   59  A    between atoms: _132  and  _135
REMARK   60  A    between atoms: _135  and  _136
REMARK   61  A    between atoms: _141  and  _142
REMARK   62  A    between atoms: _144  and  _146
REMARK   63  A    between atoms: _146  and  _147
REMARK   64  A    between atoms: _146  and  _149
REMARK   65  A    between atoms: _153  and  _154
REMARK   66  A    between atoms: _159  and  _161
REMARK   67  A    between atoms: _161  and  _162
REMARK   68  A    between atoms: _161  and  _164
REMARK   69  A    between atoms: _164  and  _165
REMARK   70  A    between atoms: _170  and  _171
REMARK   71  A    between atoms: _173  and  _175
REMARK   72  A    between atoms: _175  and  _176
REMARK   73  A    between atoms: _175  and  _178
REMARK   74  A    between atoms: _178  and  _179
REMARK   75  A    between atoms: _182  and  _184
REMARK   76  A    between atoms: _184  and  _185
REMARK   77  A    between atoms: _184  and  _187
REMARK   78  A    between atoms: _187  and  _188
REMARK   79  A    between atoms: _188  and  _189
REMARK   80  A    between atoms: _194  and  _196
REMARK   81  A    between atoms: _196  and  _197
REMARK   82  A    between atoms: _199  and  _201
REMARK   83  A    between atoms: _201  and  _202
REMARK   84  A    between atoms: _201  and  _204
REMARK   85  A    between atoms: _204  and  _205
REMARK   86  A    between atoms: _205  and  _206
REMARK   87  A    between atoms: _206  and  _207
REMARK   88  A    between atoms: _207  and  _208
REMARK   89  A    between atoms: _212  and  _214
REMARK   90  A    between atoms: _214  and  _215
REMARK   91  A    between atoms: _214  and  _217
REMARK   92  A    between atoms: _217  and  _218
REMARK   93  A    between atoms: _228  and  _230
REMARK   94  A    between atoms: _230  and  _231
REMARK   95  A    between atoms: _230  and  _233
REMARK   96  A    between atoms: _233  and  _234
REMARK   97  A    between atoms: _237  and  _239
REMARK   98  A    between atoms: _239  and  _240
REMARK   99  A    between atoms: _239  and  _242
REMARK  100  A    between atoms: _242  and  _243
REMARK  101  A    between atoms: _243  and  _244
REMARK  102  A    between atoms: _244  and  _245
REMARK  103  A    between atoms: _245  and  _246
REMARK  104  A    between atoms: _250  and  _252
REMARK  105  A    between atoms: _252  and  _253
REMARK  106  A    between atoms: _252  and  _255
REMARK  107  A    between atoms: _255  and  _256
REMARK  108  A    between atoms: _262  and  _264
REMARK  109  A    between atoms: _264  and  _265
REMARK  110  A    between atoms: _264  and  _267
REMARK  111  A    between atoms: _267  and  _268
REMARK  112  A    between atoms: _274  and  _276
REMARK  113  A    between atoms: _276  and  _277
REMARK  114  A    between atoms: _276  and  _279
REMARK  115  A    between atoms: _279  and  _280
REMARK  116  A    between atoms: _283  and  _285
REMARK  117  A    between atoms: _285  and  _286
REMARK  118  A    between atoms: _285  and  _288
REMARK  119  A    between atoms: _288  and  _289
REMARK  120  A    between atoms: _291  and  _293
REMARK  121  A    between atoms: _293  and  _294
REMARK  122  A    between atoms: _293  and  _296
REMARK  123  A    between atoms: _296  and  _297
REMARK  124  A    between atoms: _307  and  _309
REMARK  125  A    between atoms: _309  and  _310
REMARK  126  A    between atoms: _312  and  _314
REMARK  127  A    between atoms: _314  and  _315
REMARK  128  A    between atoms: _314  and  _317
REMARK  129  A    between atoms: _317  and  _318
REMARK  130  A    between atoms: _321  and  _323
REMARK  131  A    between atoms: _323  and  _324
REMARK  132  A    between atoms: _323  and  _326
REMARK  133  A    between atoms: _326  and  _327
REMARK  134  A    between atoms: _330  and  _332
REMARK  135  A    between atoms: _332  and  _333
REMARK  136  A    between atoms: _332  and  _335
REMARK  137  A    between atoms: _335  and  _336
REMARK  138  A    between atoms: _339  and  _341
REMARK  139  A    between atoms: _341  and  _342
REMARK  140  A    between atoms: _345  and  _347
REMARK  141  A    between atoms: _347  and  _348
REMARK  142  A    between atoms: _347  and  _350
REMARK  143  A    between atoms: _350  and  _351
REMARK  144  A    between atoms: _356  and  _357
REMARK  145  A    between atoms: _359  and  _361
REMARK  146  A    between atoms: _361  and  _362
REMARK  147  A    between atoms: _361  and  _364
REMARK  148  A    between atoms: _364  and  _365
REMARK  149  A    between atoms: _365  and  _366
REMARK  150  A    between atoms: _369  and  _371
REMARK  151  A    between atoms: _371  and  _372
REMARK  152  A    between atoms: _371  and  _374
REMARK  153  A    between atoms: _374  and  _375
REMARK  154  A    between atoms: _378  and  _380
REMARK  155  A    between atoms: _380  and  _381
REMARK  156  A    between atoms: _384  and  _386
REMARK  157  A    between atoms: _386  and  _387
REMARK  158  A    between atoms: _386  and  _389
REMARK  159  A    between atoms: _389  and  _390
REMARK  160  A    between atoms: _390  and  _391
REMARK  161  A    between atoms: _391  and  _392
REMARK  162  A    between atoms: _401  and  _403
REMARK  163  A    between atoms: _403  and  _404
REMARK  164  A    between atoms: _403  and  _406
REMARK  165  A    between atoms: _406  and  _407
REMARK  166  A    between atoms: _410  and  _412
REMARK  167  A    between atoms: _412  and  _413
REMARK  168  A    between atoms: _412  and  _415
REMARK  169  A    between atoms: _415  and  _416
REMARK  170  A    between atoms: _426  and  _428
REMARK  171  A    between atoms: _428  and  _429
REMARK  172  A    between atoms: _428  and  _431
REMARK  173  A    between atoms: _431  and  _432
REMARK  174  A    between atoms: _437  and  _438
REMARK  175  A    between atoms: _440  and  _442
REMARK  176  A    between atoms: _442  and  _443
REMARK  177  A    between atoms: _442  and  _445
REMARK  178  A    between atoms: _445  and  _446
REMARK  179  A    between atoms: _451  and  _452
REMARK  180  A    between atoms: _454  and  _456
REMARK  181  A    between atoms: _456  and  _457
REMARK  182  A    between atoms: _456  and  _459
REMARK  183  A    between atoms: _459  and  _460
REMARK  184  A    between atoms: _460  and  _461
REMARK  185  A    between atoms: _461  and  _462
REMARK  186  A    between atoms: _462  and  _463
REMARK  187  A    between atoms: _467  and  _469
REMARK  188  A    between atoms: _469  and  _470
REMARK  189  A    between atoms: _469  and  _472
REMARK  190  A    between atoms: _472  and  _473
REMARK  191  A    between atoms: _476  and  _478
REMARK  192  A    between atoms: _478  and  _479
REMARK  193  A    between atoms: _478  and  _481
REMARK  194  A    between atoms: _484  and  _486
REMARK  195  A    between atoms: _486  and  _487
REMARK  196  A    between atoms: _486  and  _489
REMARK  197  A    between atoms: _489  and  _490
REMARK  198  A    between atoms: _493  and  _495
REMARK  199  A    between atoms: _495  and  _496
REMARK  200  A    between atoms: _495  and  _498
REMARK  201  A    between atoms: _498  and  _499
REMARK  202  A    between atoms: _501  and  _503
REMARK  203  A    between atoms: _503  and  _504
REMARK  204  A    between atoms: _506  and  _508
REMARK  205  A    between atoms: _508  and  _509
REMARK  206  A    between atoms: _508  and  _511
REMARK  207  A    between atoms: _511  and  _512
REMARK  208  A    between atoms: _515  and  _517
REMARK  209  A    between atoms: _517  and  _518
REMARK  210  A    between atoms: _517  and  _520
REMARK  211  A    between atoms: _520  and  _521
REMARK  212  A    between atoms: _524  and  _526
REMARK  213  A    between atoms: _526  and  _527
REMARK  214  A    between atoms: _526  and  _529
REMARK  215  A    between atoms: _529  and  _530
REMARK  216  A    between atoms: _535  and  _537
REMARK  217  A    between atoms: _537  and  _538
REMARK  218  A    between atoms: _537  and  _540
REMARK  219  A    between atoms: _540  and  _541
REMARK  220  A    between atoms: _544  and  _546
REMARK  221  A    between atoms: _546  and  _547
REMARK  222  A    between atoms: _546  and  _549
REMARK  223  A    between atoms: _549  and  _550
REMARK  224  A    between atoms: _550  and  _551
REMARK  225  A    between atoms: _551  and  _552
REMARK  226  A    between atoms: _561  and  _563
REMARK  227  A    between atoms: _563  and  _564
REMARK  228  A    between atoms: _563  and  _566
REMARK  229  A    between atoms: _566  and  _567
REMARK  230  A    between atoms: _570  and  _572
REMARK  231  A    between atoms: _572  and  _573
REMARK  232  A    between atoms: _572  and  _575
REMARK  233  A    between atoms: _575  and  _576
REMARK  234  A    between atoms: _579  and  _581
REMARK  235  A    between atoms: _581  and  _582
REMARK  236  A    between atoms: _584  and  _586
REMARK  237  A    between atoms: _586  and  _587
REMARK  238  A    between atoms: _586  and  _589
REMARK  239  A    between atoms: _589  and  _590
REMARK  240  A    between atoms: _590  and  _591
REMARK  241  A    between atoms: _591  and  _592
REMARK  242  A    between atoms: _601  and  _603
REMARK  243  A    between atoms: _603  and  _604
REMARK  244  A    between atoms: _603  and  _606
REMARK  245  A    between atoms: _606  and  _607
REMARK  246  A    between atoms: _613  and  _615
REMARK  247  A    between atoms: _615  and  _616
REMARK  248  A    between atoms: _619  and  _621
REMARK  249  A    between atoms: _621  and  _622
REMARK  250  A    between atoms: _621  and  _624
REMARK  251  A    between atoms: _624  and  _625
REMARK  252  A    between atoms: _628  and  _630
REMARK  253  A    between atoms: _630  and  _631
REMARK  254  A    between atoms: _630  and  _633
REMARK  255  A    between atoms: _633  and  _634
REMARK  256  A    between atoms: _636  and  _638
REMARK  257  A    between atoms: _638  and  _639
REMARK  258  A    between atoms: _638  and  _641
REMARK  259  A    between atoms: _641  and  _642
REMARK  260  A    between atoms: _642  and  _643
REMARK  261  A    between atoms: _648  and  _650
REMARK  262  A    between atoms: _650  and  _651
REMARK  263  A    between atoms: _650  and  _653
REMARK  264  A    between atoms: _653  and  _654
REMARK  265  A    between atoms: _656  and  _658
REMARK  266  A    between atoms: _658  and  _659
REMARK  267  A    between atoms: _658  and  _661
REMARK  268  A    between atoms: _661  and  _662
REMARK  269  A    between atoms: _665  and  _667
REMARK  270  A    between atoms: _667  and  _668
REMARK  271  A    between atoms: _667  and  _670
REMARK  272  A    between atoms: _670  and  _671
REMARK  273  A    between atoms: _674  and  _676
REMARK  274  A    between atoms: _676  and  _677
REMARK  275  A    between atoms: _676  and  _679
REMARK  276  A    between atoms: _682  and  _684
REMARK  277  A    between atoms: _684  and  _685
REMARK  278  A    between atoms: _684  and  _687
REMARK  279  A    between atoms: _687  and  _688
REMARK  280  A    between atoms: _688  and  _689
REMARK  281  A    between atoms: _691  and  _693
REMARK  282  A    between atoms: _693  and  _694
REMARK  283  A    between atoms: _696  and  _698
REMARK  284  A    between atoms: _698  and  _699
REMARK  285  A    between atoms: _702  and  _704
REMARK  286  A    between atoms: _704  and  _705
REMARK  287  A    between atoms: _704  and  _707
REMARK  288  A    between atoms: _710  and  _712
REMARK  289  A    between atoms: _712  and  _713
REMARK  290  A    between atoms: _712  and  _715
REMARK  291  A    between atoms: _715  and  _716
REMARK  292  A    between atoms: _716  and  _717
REMARK  293  A    between atoms: _719  and  _721
REMARK  294  A    between atoms: _721  and  _722
REMARK  295  A    between atoms: _721  and  _724
REMARK  296  A    between atoms: _724  and  _725
REMARK  297  A    between atoms: _725  and  _726
REMARK                            x       y       z     vdW  Elec       q    Type
REMARK                         _______ _______ _______ _____ _____    ______ ____
ROOT
ATOM      1  O   HOH     1     -15.317  -6.609  25.042  0.00  0.00    +0.000 OA
ENDROOT
TORSDOF 0
REMARK  Name = ../refined-set-2016/2p4j/2p4j_pocket.pdb
REMARK  297 active torsions:
REMARK  status: ('A' for Active; 'I' for Inactive)
REMARK    1  A    between atoms: _1  and  _3
REMARK    2  A    between atoms: _3  and  _4
REMARK    3  A    between atoms: _6  and  _8
REMARK    4  A    between atoms: _8  and  _9
REMARK    5  A    between atoms: _8  and  _11
REMARK    6  A    between atoms: _11  and  _12
REMARK    7  A    between atoms: _12  and  _13
REMARK    8  A    between atoms: _13  and  _14
REMARK    9  A    between atoms: _14  and  _15
REMARK   10  A    between atoms: _19  and  _21
REMARK   11  A    between atoms: _21  and  _22
REMARK   12  A    between atoms: _21  and  _24
REMARK   13  A    between atoms: _24  and  _25
REMARK   14  A    between atoms: _27  and  _29
REMARK   15  A    between atoms: _29  and  _30
REMARK   16  A    between atoms: _32  and  _34
REMARK   17  A    between atoms: _34  and  _35
REMARK   18  A    between atoms: _34  and  _37
REMARK   19  A    between atoms: _37  and  _38
REMARK   20  A    between atoms: _38  and  _39
REMARK   21  A    between atoms: _44  and  _46
REMARK   22  A    between atoms: _46  and  _47
REMARK   23  A    between atoms: _49  and  _51
REMARK   24  A    between atoms: _51  and  _52
REMARK   25  A    between atoms: _51  and  _54
REMARK   26  A    between atoms: _54  and  _55
REMARK   27  A    between atoms: _60  and  _61
REMARK   28  A    between atoms: _63  and  _65
REMARK   29  A    between atoms: _65  and  _66
REMARK   30  A    between atoms: _65  and  _68
REMARK   31  A    between atoms: _68  and  _69
REMARK   32  A    between atoms: _72  and  _74
REMARK   33  A    between atoms: _74  and  _75
REMARK   34  A    between atoms: _74  and  _77
REMARK   35  A    between atoms: _80  and  _82
REMARK   36  A    between atoms: _82  and  _83
REMARK   37  A    between atoms: _82  and  _85
REMARK   38  A    between atoms: _85  and  _86
REMARK   39  A    between atoms: _89  and  _91
REMARK   40  A    between atoms: _91  and  _92
REMARK   41  A    between atoms: _91  and  _94
REMARK   42  A    between atoms: _94  and  _95
REMARK   43  A    between atoms: _98  and  _100
REMARK   44  A    between atoms: _100  and  _101
REMARK   45  A    between atoms: _103  and  _105
REMARK   46  A    between atoms: _105  and  _106
REMARK   47  A    between atoms: _105  and  _108
REMARK   48  A    between atoms: _108  and  _109
REMARK   49  A    between atoms: _111  and  _113
REMARK   50  A    between atoms: _113  and  _114
REMARK   51  A    between atoms: _113  and  _116
REMARK   52  A    between atoms: _116  and  _117
REMARK   53  A    between atoms: _119  and  _121
REMARK   54  A    between atoms: _121  and  _122
REMARK   55  A    between atoms: _121  and  _124
REMARK   56  A    between atoms: _124  and  _125
REMARK   57  A    between atoms: _130  and  _132
REMARK   58  A    between atoms: _132  and  _133
REMARK   59  A    between atoms: _132  and  _135
REMARK   60  A    between atoms: _135  and  _136
REMARK   61  A    between atoms: _141  and  _142
REMARK   62  A    between atoms: _144  and  _146
REMARK   63  A    between atoms: _146  and  _147
REMARK   64  A    between atoms: _146  and  _149
REMARK   65  A    between atoms: _153  and  _154
REMARK   66  A    between atoms: _159  and  _161
REMARK   67  A    between atoms: _161  and  _162
REMARK   68  A    between atoms: _161  and  _164
REMARK   69  A    between atoms: _164  and  _165
REMARK   70  A    between atoms: _170  and  _171
REMARK   71  A    between atoms: _173  and  _175
REMARK   72  A    between atoms: _175  and  _176
REMARK   73  A    between atoms: _175  and  _178
REMARK   74  A    between atoms: _178  and  _179
REMARK   75  A    between atoms: _182  and  _184
REMARK   76  A    between atoms: _184  and  _185
REMARK   77  A    between atoms: _184  and  _187
REMARK   78  A    between atoms: _187  and  _188
REMARK   79  A    between atoms: _188  and  _189
REMARK   80  A    between atoms: _194  and  _196
REMARK   81  A    between atoms: _196  and  _197
REMARK   82  A    between atoms: _199  and  _201
REMARK   83  A    between atoms: _201  and  _202
REMARK   84  A    between atoms: _201  and  _204
REMARK   85  A    between atoms: _204  and  _205
REMARK   86  A    between atoms: _205  and  _206
REMARK   87  A    between atoms: _206  and  _207
REMARK   88  A    between atoms: _207  and  _208
REMARK   89  A    between atoms: _212  and  _214
REMARK   90  A    between atoms: _214  and  _215
REMARK   91  A    between atoms: _214  and  _217
REMARK   92  A    between atoms: _217  and  _218
REMARK   93  A    between atoms: _228  and  _230
REMARK   94  A    between atoms: _230  and  _231
REMARK   95  A    between atoms: _230  and  _233
REMARK   96  A    between atoms: _233  and  _234
REMARK   97  A    between atoms: _237  and  _239
REMARK   98  A    between atoms: _239  and  _240
REMARK   99  A    between atoms: _239  and  _242
REMARK  100  A    between atoms: _242  and  _243
REMARK  101  A    between atoms: _243  and  _244
REMARK  102  A    between atoms: _244  and  _245
REMARK  103  A    between atoms: _245  and  _246
REMARK  104  A    between atoms: _250  and  _252
REMARK  105  A    between atoms: _252  and  _253
REMARK  106  A    between atoms: _252  and  _255
REMARK  107  A    between atoms: _255  and  _256
REMARK  108  A    between atoms: _262  and  _264
REMARK  109  A    between atoms: _264  and  _265
REMARK  110  A    between atoms: _264  and  _267
REMARK  111  A    between atoms: _267  and  _268
REMARK  112  A    between atoms: _274  and  _276
REMARK  113  A    between atoms: _276  and  _277
REMARK  114  A    between atoms: _276  and  _279
REMARK  115  A    between atoms: _279  and  _280
REMARK  116  A    between atoms: _283  and  _285
REMARK  117  A    between atoms: _285  and  _286
REMARK  118  A    between atoms: _285  and  _288
REMARK  119  A    between atoms: _288  and  _289
REMARK  120  A    between atoms: _291  and  _293
REMARK  121  A    between atoms: _293  and  _294
REMARK  122  A    between atoms: _293  and  _296
REMARK  123  A    between atoms: _296  and  _297
REMARK  124  A    between atoms: _307  and  _309
REMARK  125  A    between atoms: _309  and  _310
REMARK  126  A    between atoms: _312  and  _314
REMARK  127  A    between atoms: _314  and  _315
REMARK  128  A    between atoms: _314  and  _317
REMARK  129  A    between atoms: _317  and  _318
REMARK  130  A    between atoms: _321  and  _323
REMARK  131  A    between atoms: _323  and  _324
REMARK  132  A    between atoms: _323  and  _326
REMARK  133  A    between atoms: _326  and  _327
REMARK  134  A    between atoms: _330  and  _332
REMARK  135  A    between atoms: _332  and  _333
REMARK  136  A    between atoms: _332  and  _335
REMARK  137  A    between atoms: _335  and  _336
REMARK  138  A    between atoms: _339  and  _341
REMARK  139  A    between atoms: _341  and  _342
REMARK  140  A    between atoms: _345  and  _347
REMARK  141  A    between atoms: _347  and  _348
REMARK  142  A    between atoms: _347  and  _350
REMARK  143  A    between atoms: _350  and  _351
REMARK  144  A    between atoms: _356  and  _357
REMARK  145  A    between atoms: _359  and  _361
REMARK  146  A    between atoms: _361  and  _362
REMARK  147  A    between atoms: _361  and  _364
REMARK  148  A    between atoms: _364  and  _365
REMARK  149  A    between atoms: _365  and  _366
REMARK  150  A    between atoms: _369  and  _371
REMARK  151  A    between atoms: _371  and  _372
REMARK  152  A    between atoms: _371  and  _374
REMARK  153  A    between atoms: _374  and  _375
REMARK  154  A    between atoms: _378  and  _380
REMARK  155  A    between atoms: _380  and  _381
REMARK  156  A    between atoms: _384  and  _386
REMARK  157  A    between atoms: _386  and  _387
REMARK  158  A    between atoms: _386  and  _389
REMARK  159  A    between atoms: _389  and  _390
REMARK  160  A    between atoms: _390  and  _391
REMARK  161  A    between atoms: _391  and  _392
REMARK  162  A    between atoms: _401  and  _403
REMARK  163  A    between atoms: _403  and  _404
REMARK  164  A    between atoms: _403  and  _406
REMARK  165  A    between atoms: _406  and  _407
REMARK  166  A    between atoms: _410  and  _412
REMARK  167  A    between atoms: _412  and  _413
REMARK  168  A    between atoms: _412  and  _415
REMARK  169  A    between atoms: _415  and  _416
REMARK  170  A    between atoms: _426  and  _428
REMARK  171  A    between atoms: _428  and  _429
REMARK  172  A    between atoms: _428  and  _431
REMARK  173  A    between atoms: _431  and  _432
REMARK  174  A    between atoms: _437  and  _438
REMARK  175  A    between atoms: _440  and  _442
REMARK  176  A    between atoms: _442  and  _443
REMARK  177  A    between atoms: _442  and  _445
REMARK  178  A    between atoms: _445  and  _446
REMARK  179  A    between atoms: _451  and  _452
REMARK  180  A    between atoms: _454  and  _456
REMARK  181  A    between atoms: _456  and  _457
REMARK  182  A    between atoms: _456  and  _459
REMARK  183  A    between atoms: _459  and  _460
REMARK  184  A    between atoms: _460  and  _461
REMARK  185  A    between atoms: _461  and  _462
REMARK  186  A    between atoms: _462  and  _463
REMARK  187  A    between atoms: _467  and  _469
REMARK  188  A    between atoms: _469  and  _470
REMARK  189  A    between atoms: _469  and  _472
REMARK  190  A    between atoms: _472  and  _473
REMARK  191  A    between atoms: _476  and  _478
REMARK  192  A    between atoms: _478  and  _479
REMARK  193  A    between atoms: _478  and  _481
REMARK  194  A    between atoms: _484  and  _486
REMARK  195  A    between atoms: _486  and  _487
REMARK  196  A    between atoms: _486  and  _489
REMARK  197  A    between atoms: _489  and  _490
REMARK  198  A    between atoms: _493  and  _495
REMARK  199  A    between atoms: _495  and  _496
REMARK  200  A    between atoms: _495  and  _498
REMARK  201  A    between atoms: _498  and  _499
REMARK  202  A    between atoms: _501  and  _503
REMARK  203  A    between atoms: _503  and  _504
REMARK  204  A    between atoms: _506  and  _508
REMARK  205  A    between atoms: _508  and  _509
REMARK  206  A    between atoms: _508  and  _511
REMARK  207  A    between atoms: _511  and  _512
REMARK  208  A    between atoms: _515  and  _517
REMARK  209  A    between atoms: _517  and  _518
REMARK  210  A    between atoms: _517  and  _520
REMARK  211  A    between atoms: _520  and  _521
REMARK  212  A    between atoms: _524  and  _526
REMARK  213  A    between atoms: _526  and  _527
REMARK  214  A    between atoms: _526  and  _529
REMARK  215  A    between atoms: _529  and  _530
REMARK  216  A    between atoms: _535  and  _537
REMARK  217  A    between atoms: _537  and  _538
REMARK  218  A    between atoms: _537  and  _540
REMARK  219  A    between atoms: _540  and  _541
REMARK  220  A    between atoms: _544  and  _546
REMARK  221  A    between atoms: _546  and  _547
REMARK  222  A    between atoms: _546  and  _549
REMARK  223  A    between atoms: _549  and  _550
REMARK  224  A    between atoms: _550  and  _551
REMARK  225  A    between atoms: _551  and  _552
REMARK  226  A    between atoms: _561  and  _563
REMARK  227  A    between atoms: _563  and  _564
REMARK  228  A    between atoms: _563  and  _566
REMARK  229  A    between atoms: _566  and  _567
REMARK  230  A    between atoms: _570  and  _572
REMARK  231  A    between atoms: _572  and  _573
REMARK  232  A    between atoms: _572  and  _575
REMARK  233  A    between atoms: _575  and  _576
REMARK  234  A    between atoms: _579  and  _581
REMARK  235  A    between atoms: _581  and  _582
REMARK  236  A    between atoms: _584  and  _586
REMARK  237  A    between atoms: _586  and  _587
REMARK  238  A    between atoms: _586  and  _589
REMARK  239  A    between atoms: _589  and  _590
REMARK  240  A    between atoms: _590  and  _591
REMARK  241  A    between atoms: _591  and  _592
REMARK  242  A    between atoms: _601  and  _603
REMARK  243  A    between atoms: _603  and  _604
REMARK  244  A    between atoms: _603  and  _606
REMARK  245  A    between atoms: _606  and  _607
REMARK  246  A    between atoms: _613  and  _615
REMARK  247  A    between atoms: _615  and  _616
REMARK  248  A    between atoms: _619  and  _621
REMARK  249  A    between atoms: _621  and  _622
REMARK  250  A    between atoms: _621  and  _624
REMARK  251  A    between atoms: _624  and  _625
REMARK  252  A    between atoms: _628  and  _630
REMARK  253  A    between atoms: _630  and  _631
REMARK  254  A    between atoms: _630  and  _633
REMARK  255  A    between atoms: _633  and  _634
REMARK  256  A    between atoms: _636  and  _638
REMARK  257  A    between atoms: _638  and  _639
REMARK  258  A    between atoms: _638  and  _641
REMARK  259  A    between atoms: _641  and  _642
REMARK  260  A    between atoms: _642  and  _643
REMARK  261  A    between atoms: _648  and  _650
REMARK  262  A    between atoms: _650  and  _651
REMARK  263  A    between atoms: _650  and  _653
REMARK  264  A    between atoms: _653  and  _654
REMARK  265  A    between atoms: _656  and  _658
REMARK  266  A    between atoms: _658  and  _659
REMARK  267  A    between atoms: _658  and  _661
REMARK  268  A    between atoms: _661  and  _662
REMARK  269  A    between atoms: _665  and  _667
REMARK  270  A    between atoms: _667  and  _668
REMARK  271  A    between atoms: _667  and  _670
REMARK  272  A    between atoms: _670  and  _671
REMARK  273  A    between atoms: _674  and  _676
REMARK  274  A    between atoms: _676  and  _677
REMARK  275  A    between atoms: _676  and  _679
REMARK  276  A    between atoms: _682  and  _684
REMARK  277  A    between atoms: _684  and  _685
REMARK  278  A    between atoms: _684  and  _687
REMARK  279  A    between atoms: _687  and  _688
REMARK  280  A    between atoms: _688  and  _689
REMARK  281  A    between atoms: _691  and  _693
REMARK  282  A    between atoms: _693  and  _694
REMARK  283  A    between atoms: _696  and  _698
REMARK  284  A    between atoms: _698  and  _699
REMARK  285  A    between atoms: _702  and  _704
REMARK  286  A    between atoms: _704  and  _705
REMARK  287  A    between atoms: _704  and  _707
REMARK  288  A    between atoms: _710  and  _712
REMARK  289  A    between atoms: _712  and  _713
REMARK  290  A    between atoms: _712  and  _715
REMARK  291  A    between atoms: _715  and  _716
REMARK  292  A    between atoms: _716  and  _717
REMARK  293  A    between atoms: _719  and  _721
REMARK  294  A    between atoms: _721  and  _722
REMARK  295  A    between atoms: _721  and  _724
REMARK  296  A    between atoms: _724  and  _725
REMARK  297  A    between atoms: _725  and  _726
REMARK                            x       y       z     vdW  Elec       q    Type
REMARK                         _______ _______ _______ _____ _____    ______ ____
ROOT
ATOM      1  O   HOH     1       6.797  -1.384  26.832  0.00  0.00    +0.000 OA
ENDROOT
TORSDOF 0
REMARK  Name = ../refined-set-2016/2p4j/2p4j_pocket.pdb
REMARK  297 active torsions:
REMARK  status: ('A' for Active; 'I' for Inactive)
REMARK    1  A    between atoms: _1  and  _3
REMARK    2  A    between atoms: _3  and  _4
REMARK    3  A    between atoms: _6  and  _8
REMARK    4  A    between atoms: _8  and  _9
REMARK    5  A    between atoms: _8  and  _11
REMARK    6  A    between atoms: _11  and  _12
REMARK    7  A    between atoms: _12  and  _13
REMARK    8  A    between atoms: _13  and  _14
REMARK    9  A    between atoms: _14  and  _15
REMARK   10  A    between atoms: _19  and  _21
REMARK   11  A    between atoms: _21  and  _22
REMARK   12  A    between atoms: _21  and  _24
REMARK   13  A    between atoms: _24  and  _25
REMARK   14  A    between atoms: _27  and  _29
REMARK   15  A    between atoms: _29  and  _30
REMARK   16  A    between atoms: _32  and  _34
REMARK   17  A    between atoms: _34  and  _35
REMARK   18  A    between atoms: _34  and  _37
REMARK   19  A    between atoms: _37  and  _38
REMARK   20  A    between atoms: _38  and  _39
REMARK   21  A    between atoms: _44  and  _46
REMARK   22  A    between atoms: _46  and  _47
REMARK   23  A    between atoms: _49  and  _51
REMARK   24  A    between atoms: _51  and  _52
REMARK   25  A    between atoms: _51  and  _54
REMARK   26  A    between atoms: _54  and  _55
REMARK   27  A    between atoms: _60  and  _61
REMARK   28  A    between atoms: _63  and  _65
REMARK   29  A    between atoms: _65  and  _66
REMARK   30  A    between atoms: _65  and  _68
REMARK   31  A    between atoms: _68  and  _69
REMARK   32  A    between atoms: _72  and  _74
REMARK   33  A    between atoms: _74  and  _75
REMARK   34  A    between atoms: _74  and  _77
REMARK   35  A    between atoms: _80  and  _82
REMARK   36  A    between atoms: _82  and  _83
REMARK   37  A    between atoms: _82  and  _85
REMARK   38  A    between atoms: _85  and  _86
REMARK   39  A    between atoms: _89  and  _91
REMARK   40  A    between atoms: _91  and  _92
REMARK   41  A    between atoms: _91  and  _94
REMARK   42  A    between atoms: _94  and  _95
REMARK   43  A    between atoms: _98  and  _100
REMARK   44  A    between atoms: _100  and  _101
REMARK   45  A    between atoms: _103  and  _105
REMARK   46  A    between atoms: _105  and  _106
REMARK   47  A    between atoms: _105  and  _108
REMARK   48  A    between atoms: _108  and  _109
REMARK   49  A    between atoms: _111  and  _113
REMARK   50  A    between atoms: _113  and  _114
REMARK   51  A    between atoms: _113  and  _116
REMARK   52  A    between atoms: _116  and  _117
REMARK   53  A    between atoms: _119  and  _121
REMARK   54  A    between atoms: _121  and  _122
REMARK   55  A    between atoms: _121  and  _124
REMARK   56  A    between atoms: _124  and  _125
REMARK   57  A    between atoms: _130  and  _132
REMARK   58  A    between atoms: _132  and  _133
REMARK   59  A    between atoms: _132  and  _135
REMARK   60  A    between atoms: _135  and  _136
REMARK   61  A    between atoms: _141  and  _142
REMARK   62  A    between atoms: _144  and  _146
REMARK   63  A    between atoms: _146  and  _147
REMARK   64  A    between atoms: _146  and  _149
REMARK   65  A    between atoms: _153  and  _154
REMARK   66  A    between atoms: _159  and  _161
REMARK   67  A    between atoms: _161  and  _162
REMARK   68  A    between atoms: _161  and  _164
REMARK   69  A    between atoms: _164  and  _165
REMARK   70  A    between atoms: _170  and  _171
REMARK   71  A    between atoms: _173  and  _175
REMARK   72  A    between atoms: _175  and  _176
REMARK   73  A    between atoms: _175  and  _178
REMARK   74  A    between atoms: _178  and  _179
REMARK   75  A    between atoms: _182  and  _184
REMARK   76  A    between atoms: _184  and  _185
REMARK   77  A    between atoms: _184  and  _187
REMARK   78  A    between atoms: _187  and  _188
REMARK   79  A    between atoms: _188  and  _189
REMARK   80  A    between atoms: _194  and  _196
REMARK   81  A    between atoms: _196  and  _197
REMARK   82  A    between atoms: _199  and  _201
REMARK   83  A    between atoms: _201  and  _202
REMARK   84  A    between atoms: _201  and  _204
REMARK   85  A    between atoms: _204  and  _205
REMARK   86  A    between atoms: _205  and  _206
REMARK   87  A    between atoms: _206  and  _207
REMARK   88  A    between atoms: _207  and  _208
REMARK   89  A    between atoms: _212  and  _214
REMARK   90  A    between atoms: _214  and  _215
REMARK   91  A    between atoms: _214  and  _217
REMARK   92  A    between atoms: _217  and  _218
REMARK   93  A    between atoms: _228  and  _230
REMARK   94  A    between atoms: _230  and  _231
REMARK   95  A    between atoms: _230  and  _233
REMARK   96  A    between atoms: _233  and  _234
REMARK   97  A    between atoms: _237  and  _239
REMARK   98  A    between atoms: _239  and  _240
REMARK   99  A    between atoms: _239  and  _242
REMARK  100  A    between atoms: _242  and  _243
REMARK  101  A    between atoms: _243  and  _244
REMARK  102  A    between atoms: _244  and  _245
REMARK  103  A    between atoms: _245  and  _246
REMARK  104  A    between atoms: _250  and  _252
REMARK  105  A    between atoms: _252  and  _253
REMARK  106  A    between atoms: _252  and  _255
REMARK  107  A    between atoms: _255  and  _256
REMARK  108  A    between atoms: _262  and  _264
REMARK  109  A    between atoms: _264  and  _265
REMARK  110  A    between atoms: _264  and  _267
REMARK  111  A    between atoms: _267  and  _268
REMARK  112  A    between atoms: _274  and  _276
REMARK  113  A    between atoms: _276  and  _277
REMARK  114  A    between atoms: _276  and  _279
REMARK  115  A    between atoms: _279  and  _280
REMARK  116  A    between atoms: _283  and  _285
REMARK  117  A    between atoms: _285  and  _286
REMARK  118  A    between atoms: _285  and  _288
REMARK  119  A    between atoms: _288  and  _289
REMARK  120  A    between atoms: _291  and  _293
REMARK  121  A    between atoms: _293  and  _294
REMARK  122  A    between atoms: _293  and  _296
REMARK  123  A    between atoms: _296  and  _297
REMARK  124  A    between atoms: _307  and  _309
REMARK  125  A    between atoms: _309  and  _310
REMARK  126  A    between atoms: _312  and  _314
REMARK  127  A    between atoms: _314  and  _315
REMARK  128  A    between atoms: _314  and  _317
REMARK  129  A    between atoms: _317  and  _318
REMARK  130  A    between atoms: _321  and  _323
REMARK  131  A    between atoms: _323  and  _324
REMARK  132  A    between atoms: _323  and  _326
REMARK  133  A    between atoms: _326  and  _327
REMARK  134  A    between atoms: _330  and  _332
REMARK  135  A    between atoms: _332  and  _333
REMARK  136  A    between atoms: _332  and  _335
REMARK  137  A    between atoms: _335  and  _336
REMARK  138  A    between atoms: _339  and  _341
REMARK  139  A    between atoms: _341  and  _342
REMARK  140  A    between atoms: _345  and  _347
REMARK  141  A    between atoms: _347  and  _348
REMARK  142  A    between atoms: _347  and  _350
REMARK  143  A    between atoms: _350  and  _351
REMARK  144  A    between atoms: _356  and  _357
REMARK  145  A    between atoms: _359  and  _361
REMARK  146  A    between atoms: _361  and  _362
REMARK  147  A    between atoms: _361  and  _364
REMARK  148  A    between atoms: _364  and  _365
REMARK  149  A    between atoms: _365  and  _366
REMARK  150  A    between atoms: _369  and  _371
REMARK  151  A    between atoms: _371  and  _372
REMARK  152  A    between atoms: _371  and  _374
REMARK  153  A    between atoms: _374  and  _375
REMARK  154  A    between atoms: _378  and  _380
REMARK  155  A    between atoms: _380  and  _381
REMARK  156  A    between atoms: _384  and  _386
REMARK  157  A    between atoms: _386  and  _387
REMARK  158  A    between atoms: _386  and  _389
REMARK  159  A    between atoms: _389  and  _390
REMARK  160  A    between atoms: _390  and  _391
REMARK  161  A    between atoms: _391  and  _392
REMARK  162  A    between atoms: _401  and  _403
REMARK  163  A    between atoms: _403  and  _404
REMARK  164  A    between atoms: _403  and  _406
REMARK  165  A    between atoms: _406  and  _407
REMARK  166  A    between atoms: _410  and  _412
REMARK  167  A    between atoms: _412  and  _413
REMARK  168  A    between atoms: _412  and  _415
REMARK  169  A    between atoms: _415  and  _416
REMARK  170  A    between atoms: _426  and  _428
REMARK  171  A    between atoms: _428  and  _429
REMARK  172  A    between atoms: _428  and  _431
REMARK  173  A    between atoms: _431  and  _432
REMARK  174  A    between atoms: _437  and  _438
REMARK  175  A    between atoms: _440  and  _442
REMARK  176  A    between atoms: _442  and  _443
REMARK  177  A    between atoms: _442  and  _445
REMARK  178  A    between atoms: _445  and  _446
REMARK  179  A    between atoms: _451  and  _452
REMARK  180  A    between atoms: _454  and  _456
REMARK  181  A    between atoms: _456  and  _457
REMARK  182  A    between atoms: _456  and  _459
REMARK  183  A    between atoms: _459  and  _460
REMARK  184  A    between atoms: _460  and  _461
REMARK  185  A    between atoms: _461  and  _462
REMARK  186  A    between atoms: _462  and  _463
REMARK  187  A    between atoms: _467  and  _469
REMARK  188  A    between atoms: _469  and  _470
REMARK  189  A    between atoms: _469  and  _472
REMARK  190  A    between atoms: _472  and  _473
REMARK  191  A    between atoms: _476  and  _478
REMARK  192  A    between atoms: _478  and  _479
REMARK  193  A    between atoms: _478  and  _481
REMARK  194  A    between atoms: _484  and  _486
REMARK  195  A    between atoms: _486  and  _487
REMARK  196  A    between atoms: _486  and  _489
REMARK  197  A    between atoms: _489  and  _490
REMARK  198  A    between atoms: _493  and  _495
REMARK  199  A    between atoms: _495  and  _496
REMARK  200  A    between atoms: _495  and  _498
REMARK  201  A    between atoms: _498  and  _499
REMARK  202  A    between atoms: _501  and  _503
REMARK  203  A    between atoms: _503  and  _504
REMARK  204  A    between atoms: _506  and  _508
REMARK  205  A    between atoms: _508  and  _509
REMARK  206  A    between atoms: _508  and  _511
REMARK  207  A    between atoms: _511  and  _512
REMARK  208  A    between atoms: _515  and  _517
REMARK  209  A    between atoms: _517  and  _518
REMARK  210  A    between atoms: _517  and  _520
REMARK  211  A    between atoms: _520  and  _521
REMARK  212  A    between atoms: _524  and  _526
REMARK  213  A    between atoms: _526  and  _527
REMARK  214  A    between atoms: _526  and  _529
REMARK  215  A    between atoms: _529  and  _530
REMARK  216  A    between atoms: _535  and  _537
REMARK  217  A    between atoms: _537  and  _538
REMARK  218  A    between atoms: _537  and  _540
REMARK  219  A    between atoms: _540  and  _541
REMARK  220  A    between atoms: _544  and  _546
REMARK  221  A    between atoms: _546  and  _547
REMARK  222  A    between atoms: _546  and  _549
REMARK  223  A    between atoms: _549  and  _550
REMARK  224  A    between atoms: _550  and  _551
REMARK  225  A    between atoms: _551  and  _552
REMARK  226  A    between atoms: _561  and  _563
REMARK  227  A    between atoms: _563  and  _564
REMARK  228  A    between atoms: _563  and  _566
REMARK  229  A    between atoms: _566  and  _567
REMARK  230  A    between atoms: _570  and  _572
REMARK  231  A    between atoms: _572  and  _573
REMARK  232  A    between atoms: _572  and  _575
REMARK  233  A    between atoms: _575  and  _576
REMARK  234  A    between atoms: _579  and  _581
REMARK  235  A    between atoms: _581  and  _582
REMARK  236  A    between atoms: _584  and  _586
REMARK  237  A    between atoms: _586  and  _587
REMARK  238  A    between atoms: _586  and  _589
REMARK  239  A    between atoms: _589  and  _590
REMARK  240  A    between atoms: _590  and  _591
REMARK  241  A    between atoms: _591  and  _592
REMARK  242  A    between atoms: _601  and  _603
REMARK  243  A    between atoms: _603  and  _604
REMARK  244  A    between atoms: _603  and  _606
REMARK  245  A    between atoms: _606  and  _607
REMARK  246  A    between atoms: _613  and  _615
REMARK  247  A    between atoms: _615  and  _616
REMARK  248  A    between atoms: _619  and  _621
REMARK  249  A    between atoms: _621  and  _622
REMARK  250  A    between atoms: _621  and  _624
REMARK  251  A    between atoms: _624  and  _625
REMARK  252  A    between atoms: _628  and  _630
REMARK  253  A    between atoms: _630  and  _631
REMARK  254  A    between atoms: _630  and  _633
REMARK  255  A    between atoms: _633  and  _634
REMARK  256  A    between atoms: _636  and  _638
REMARK  257  A    between atoms: _638  and  _639
REMARK  258  A    between atoms: _638  and  _641
REMARK  259  A    between atoms: _641  and  _642
REMARK  260  A    between atoms: _642  and  _643
REMARK  261  A    between atoms: _648  and  _650
REMARK  262  A    between atoms: _650  and  _651
REMARK  263  A    between atoms: _650  and  _653
REMARK  264  A    between atoms: _653  and  _654
REMARK  265  A    between atoms: _656  and  _658
REMARK  266  A    between atoms: _658  and  _659
REMARK  267  A    between atoms: _658  and  _661
REMARK  268  A    between atoms: _661  and  _662
REMARK  269  A    between atoms: _665  and  _667
REMARK  270  A    between atoms: _667  and  _668
REMARK  271  A    between atoms: _667  and  _670
REMARK  272  A    between atoms: _670  and  _671
REMARK  273  A    between atoms: _674  and  _676
REMARK  274  A    between atoms: _676  and  _677
REMARK  275  A    between atoms: _676  and  _679
REMARK  276  A    between atoms: _682  and  _684
REMARK  277  A    between atoms: _684  and  _685
REMARK  278  A    between atoms: _684  and  _687
REMARK  279  A    between atoms: _687  and  _688
REMARK  280  A    between atoms: _688  and  _689
REMARK  281  A    between atoms: _691  and  _693
REMARK  282  A    between atoms: _693  and  _694
REMARK  283  A    between atoms: _696  and  _698
REMARK  284  A    between atoms: _698  and  _699
REMARK  285  A    between atoms: _702  and  _704
REMARK  286  A    between atoms: _704  and  _705
REMARK  287  A    between atoms: _704  and  _707
REMARK  288  A    between atoms: _710  and  _712
REMARK  289  A    between atoms: _712  and  _713
REMARK  290  A    between atoms: _712  and  _715
REMARK  291  A    between atoms: _715  and  _716
REMARK  292  A    between atoms: _716  and  _717
REMARK  293  A    between atoms: _719  and  _721
REMARK  294  A    between atoms: _721  and  _722
REMARK  295  A    between atoms: _721  and  _724
REMARK  296  A    between atoms: _724  and  _725
REMARK  297  A    between atoms: _725  and  _726
REMARK                            x       y       z     vdW  Elec       q    Type
REMARK                         _______ _______ _______ _____ _____    ______ ____
ROOT
ATOM      1  O   HOH     1      -7.239   3.391  29.942  0.00  0.00    +0.000 OA
ENDROOT
TORSDOF 0
REMARK  Name = ../refined-set-2016/2p4j/2p4j_pocket.pdb
REMARK  297 active torsions:
REMARK  status: ('A' for Active; 'I' for Inactive)
REMARK    1  A    between atoms: _1  and  _3
REMARK    2  A    between atoms: _3  and  _4
REMARK    3  A    between atoms: _6  and  _8
REMARK    4  A    between atoms: _8  and  _9
REMARK    5  A    between atoms: _8  and  _11
REMARK    6  A    between atoms: _11  and  _12
REMARK    7  A    between atoms: _12  and  _13
REMARK    8  A    between atoms: _13  and  _14
REMARK    9  A    between atoms: _14  and  _15
REMARK   10  A    between atoms: _19  and  _21
REMARK   11  A    between atoms: _21  and  _22
REMARK   12  A    between atoms: _21  and  _24
REMARK   13  A    between atoms: _24  and  _25
REMARK   14  A    between atoms: _27  and  _29
REMARK   15  A    between atoms: _29  and  _30
REMARK   16  A    between atoms: _32  and  _34
REMARK   17  A    between atoms: _34  and  _35
REMARK   18  A    between atoms: _34  and  _37
REMARK   19  A    between atoms: _37  and  _38
REMARK   20  A    between atoms: _38  and  _39
REMARK   21  A    between atoms: _44  and  _46
REMARK   22  A    between atoms: _46  and  _47
REMARK   23  A    between atoms: _49  and  _51
REMARK   24  A    between atoms: _51  and  _52
REMARK   25  A    between atoms: _51  and  _54
REMARK   26  A    between atoms: _54  and  _55
REMARK   27  A    between atoms: _60  and  _61
REMARK   28  A    between atoms: _63  and  _65
REMARK   29  A    between atoms: _65  and  _66
REMARK   30  A    between atoms: _65  and  _68
REMARK   31  A    between atoms: _68  and  _69
REMARK   32  A    between atoms: _72  and  _74
REMARK   33  A    between atoms: _74  and  _75
REMARK   34  A    between atoms: _74  and  _77
REMARK   35  A    between atoms: _80  and  _82
REMARK   36  A    between atoms: _82  and  _83
REMARK   37  A    between atoms: _82  and  _85
REMARK   38  A    between atoms: _85  and  _86
REMARK   39  A    between atoms: _89  and  _91
REMARK   40  A    between atoms: _91  and  _92
REMARK   41  A    between atoms: _91  and  _94
REMARK   42  A    between atoms: _94  and  _95
REMARK   43  A    between atoms: _98  and  _100
REMARK   44  A    between atoms: _100  and  _101
REMARK   45  A    between atoms: _103  and  _105
REMARK   46  A    between atoms: _105  and  _106
REMARK   47  A    between atoms: _105  and  _108
REMARK   48  A    between atoms: _108  and  _109
REMARK   49  A    between atoms: _111  and  _113
REMARK   50  A    between atoms: _113  and  _114
REMARK   51  A    between atoms: _113  and  _116
REMARK   52  A    between atoms: _116  and  _117
REMARK   53  A    between atoms: _119  and  _121
REMARK   54  A    between atoms: _121  and  _122
REMARK   55  A    between atoms: _121  and  _124
REMARK   56  A    between atoms: _124  and  _125
REMARK   57  A    between atoms: _130  and  _132
REMARK   58  A    between atoms: _132  and  _133
REMARK   59  A    between atoms: _132  and  _135
REMARK   60  A    between atoms: _135  and  _136
REMARK   61  A    between atoms: _141  and  _142
REMARK   62  A    between atoms: _144  and  _146
REMARK   63  A    between atoms: _146  and  _147
REMARK   64  A    between atoms: _146  and  _149
REMARK   65  A    between atoms: _153  and  _154
REMARK   66  A    between atoms: _159  and  _161
REMARK   67  A    between atoms: _161  and  _162
REMARK   68  A    between atoms: _161  and  _164
REMARK   69  A    between atoms: _164  and  _165
REMARK   70  A    between atoms: _170  and  _171
REMARK   71  A    between atoms: _173  and  _175
REMARK   72  A    between atoms: _175  and  _176
REMARK   73  A    between atoms: _175  and  _178
REMARK   74  A    between atoms: _178  and  _179
REMARK   75  A    between atoms: _182  and  _184
REMARK   76  A    between atoms: _184  and  _185
REMARK   77  A    between atoms: _184  and  _187
REMARK   78  A    between atoms: _187  and  _188
REMARK   79  A    between atoms: _188  and  _189
REMARK   80  A    between atoms: _194  and  _196
REMARK   81  A    between atoms: _196  and  _197
REMARK   82  A    between atoms: _199  and  _201
REMARK   83  A    between atoms: _201  and  _202
REMARK   84  A    between atoms: _201  and  _204
REMARK   85  A    between atoms: _204  and  _205
REMARK   86  A    between atoms: _205  and  _206
REMARK   87  A    between atoms: _206  and  _207
REMARK   88  A    between atoms: _207  and  _208
REMARK   89  A    between atoms: _212  and  _214
REMARK   90  A    between atoms: _214  and  _215
REMARK   91  A    between atoms: _214  and  _217
REMARK   92  A    between atoms: _217  and  _218
REMARK   93  A    between atoms: _228  and  _230
REMARK   94  A    between atoms: _230  and  _231
REMARK   95  A    between atoms: _230  and  _233
REMARK   96  A    between atoms: _233  and  _234
REMARK   97  A    between atoms: _237  and  _239
REMARK   98  A    between atoms: _239  and  _240
REMARK   99  A    between atoms: _239  and  _242
REMARK  100  A    between atoms: _242  and  _243
REMARK  101  A    between atoms: _243  and  _244
REMARK  102  A    between atoms: _244  and  _245
REMARK  103  A    between atoms: _245  and  _246
REMARK  104  A    between atoms: _250  and  _252
REMARK  105  A    between atoms: _252  and  _253
REMARK  106  A    between atoms: _252  and  _255
REMARK  107  A    between atoms: _255  and  _256
REMARK  108  A    between atoms: _262  and  _264
REMARK  109  A    between atoms: _264  and  _265
REMARK  110  A    between atoms: _264  and  _267
REMARK  111  A    between atoms: _267  and  _268
REMARK  112  A    between atoms: _274  and  _276
REMARK  113  A    between atoms: _276  and  _277
REMARK  114  A    between atoms: _276  and  _279
REMARK  115  A    between atoms: _279  and  _280
REMARK  116  A    between atoms: _283  and  _285
REMARK  117  A    between atoms: _285  and  _286
REMARK  118  A    between atoms: _285  and  _288
REMARK  119  A    between atoms: _288  and  _289
REMARK  120  A    between atoms: _291  and  _293
REMARK  121  A    between atoms: _293  and  _294
REMARK  122  A    between atoms: _293  and  _296
REMARK  123  A    between atoms: _296  and  _297
REMARK  124  A    between atoms: _307  and  _309
REMARK  125  A    between atoms: _309  and  _310
REMARK  126  A    between atoms: _312  and  _314
REMARK  127  A    between atoms: _314  and  _315
REMARK  128  A    between atoms: _314  and  _317
REMARK  129  A    between atoms: _317  and  _318
REMARK  130  A    between atoms: _321  and  _323
REMARK  131  A    between atoms: _323  and  _324
REMARK  132  A    between atoms: _323  and  _326
REMARK  133  A    between atoms: _326  and  _327
REMARK  134  A    between atoms: _330  and  _332
REMARK  135  A    between atoms: _332  and  _333
REMARK  136  A    between atoms: _332  and  _335
REMARK  137  A    between atoms: _335  and  _336
REMARK  138  A    between atoms: _339  and  _341
REMARK  139  A    between atoms: _341  and  _342
REMARK  140  A    between atoms: _345  and  _347
REMARK  141  A    between atoms: _347  and  _348
REMARK  142  A    between atoms: _347  and  _350
REMARK  143  A    between atoms: _350  and  _351
REMARK  144  A    between atoms: _356  and  _357
REMARK  145  A    between atoms: _359  and  _361
REMARK  146  A    between atoms: _361  and  _362
REMARK  147  A    between atoms: _361  and  _364
REMARK  148  A    between atoms: _364  and  _365
REMARK  149  A    between atoms: _365  and  _366
REMARK  150  A    between atoms: _369  and  _371
REMARK  151  A    between atoms: _371  and  _372
REMARK  152  A    between atoms: _371  and  _374
REMARK  153  A    between atoms: _374  and  _375
REMARK  154  A    between atoms: _378  and  _380
REMARK  155  A    between atoms: _380  and  _381
REMARK  156  A    between atoms: _384  and  _386
REMARK  157  A    between atoms: _386  and  _387
REMARK  158  A    between atoms: _386  and  _389
REMARK  159  A    between atoms: _389  and  _390
REMARK  160  A    between atoms: _390  and  _391
REMARK  161  A    between atoms: _391  and  _392
REMARK  162  A    between atoms: _401  and  _403
REMARK  163  A    between atoms: _403  and  _404
REMARK  164  A    between atoms: _403  and  _406
REMARK  165  A    between atoms: _406  and  _407
REMARK  166  A    between atoms: _410  and  _412
REMARK  167  A    between atoms: _412  and  _413
REMARK  168  A    between atoms: _412  and  _415
REMARK  169  A    between atoms: _415  and  _416
REMARK  170  A    between atoms: _426  and  _428
REMARK  171  A    between atoms: _428  and  _429
REMARK  172  A    between atoms: _428  and  _431
REMARK  173  A    between atoms: _431  and  _432
REMARK  174  A    between atoms: _437  and  _438
REMARK  175  A    between atoms: _440  and  _442
REMARK  176  A    between atoms: _442  and  _443
REMARK  177  A    between atoms: _442  and  _445
REMARK  178  A    between atoms: _445  and  _446
REMARK  179  A    between atoms: _451  and  _452
REMARK  180  A    between atoms: _454  and  _456
REMARK  181  A    between atoms: _456  and  _457
REMARK  182  A    between atoms: _456  and  _459
REMARK  183  A    between atoms: _459  and  _460
REMARK  184  A    between atoms: _460  and  _461
REMARK  185  A    between atoms: _461  and  _462
REMARK  186  A    between atoms: _462  and  _463
REMARK  187  A    between atoms: _467  and  _469
REMARK  188  A    between atoms: _469  and  _470
REMARK  189  A    between atoms: _469  and  _472
REMARK  190  A    between atoms: _472  and  _473
REMARK  191  A    between atoms: _476  and  _478
REMARK  192  A    between atoms: _478  and  _479
REMARK  193  A    between atoms: _478  and  _481
REMARK  194  A    between atoms: _484  and  _486
REMARK  195  A    between atoms: _486  and  _487
REMARK  196  A    between atoms: _486  and  _489
REMARK  197  A    between atoms: _489  and  _490
REMARK  198  A    between atoms: _493  and  _495
REMARK  199  A    between atoms: _495  and  _496
REMARK  200  A    between atoms: _495  and  _498
REMARK  201  A    between atoms: _498  and  _499
REMARK  202  A    between atoms: _501  and  _503
REMARK  203  A    between atoms: _503  and  _504
REMARK  204  A    between atoms: _506  and  _508
REMARK  205  A    between atoms: _508  and  _509
REMARK  206  A    between atoms: _508  and  _511
REMARK  207  A    between atoms: _511  and  _512
REMARK  208  A    between atoms: _515  and  _517
REMARK  209  A    between atoms: _517  and  _518
REMARK  210  A    between atoms: _517  and  _520
REMARK  211  A    between atoms: _520  and  _521
REMARK  212  A    between atoms: _524  and  _526
REMARK  213  A    between atoms: _526  and  _527
REMARK  214  A    between atoms: _526  and  _529
REMARK  215  A    between atoms: _529  and  _530
REMARK  216  A    between atoms: _535  and  _537
REMARK  217  A    between atoms: _537  and  _538
REMARK  218  A    between atoms: _537  and  _540
REMARK  219  A    between atoms: _540  and  _541
REMARK  220  A    between atoms: _544  and  _546
REMARK  221  A    between atoms: _546  and  _547
REMARK  222  A    between atoms: _546  and  _549
REMARK  223  A    between atoms: _549  and  _550
REMARK  224  A    between atoms: _550  and  _551
REMARK  225  A    between atoms: _551  and  _552
REMARK  226  A    between atoms: _561  and  _563
REMARK  227  A    between atoms: _563  and  _564
REMARK  228  A    between atoms: _563  and  _566
REMARK  229  A    between atoms: _566  and  _567
REMARK  230  A    between atoms: _570  and  _572
REMARK  231  A    between atoms: _572  and  _573
REMARK  232  A    between atoms: _572  and  _575
REMARK  233  A    between atoms: _575  and  _576
REMARK  234  A    between atoms: _579  and  _581
REMARK  235  A    between atoms: _581  and  _582
REMARK  236  A    between atoms: _584  and  _586
REMARK  237  A    between atoms: _586  and  _587
REMARK  238  A    between atoms: _586  and  _589
REMARK  239  A    between atoms: _589  and  _590
REMARK  240  A    between atoms: _590  and  _591
REMARK  241  A    between atoms: _591  and  _592
REMARK  242  A    between atoms: _601  and  _603
REMARK  243  A    between atoms: _603  and  _604
REMARK  244  A    between atoms: _603  and  _606
REMARK  245  A    between atoms: _606  and  _607
REMARK  246  A    between atoms: _613  and  _615
REMARK  247  A    between atoms: _615  and  _616
REMARK  248  A    between atoms: _619  and  _621
REMARK  249  A    between atoms: _621  and  _622
REMARK  250  A    between atoms: _621  and  _624
REMARK  251  A    between atoms: _624  and  _625
REMARK  252  A    between atoms: _628  and  _630
REMARK  253  A    between atoms: _630  and  _631
REMARK  254  A    between atoms: _630  and  _633
REMARK  255  A    between atoms: _633  and  _634
REMARK  256  A    between atoms: _636  and  _638
REMARK  257  A    between atoms: _638  and  _639
REMARK  258  A    between atoms: _638  and  _641
REMARK  259  A    between atoms: _641  and  _642
REMARK  260  A    between atoms: _642  and  _643
REMARK  261  A    between atoms: _648  and  _650
REMARK  262  A    between atoms: _650  and  _651
REMARK  263  A    between atoms: _650  and  _653
REMARK  264  A    between atoms: _653  and  _654
REMARK  265  A    between atoms: _656  and  _658
REMARK  266  A    between atoms: _658  and  _659
REMARK  267  A    between atoms: _658  and  _661
REMARK  268  A    between atoms: _661  and  _662
REMARK  269  A    between atoms: _665  and  _667
REMARK  270  A    between atoms: _667  and  _668
REMARK  271  A    between atoms: _667  and  _670
REMARK  272  A    between atoms: _670  and  _671
REMARK  273  A    between atoms: _674  and  _676
REMARK  274  A    between atoms: _676  and  _677
REMARK  275  A    between atoms: _676  and  _679
REMARK  276  A    between atoms: _682  and  _684
REMARK  277  A    between atoms: _684  and  _685
REMARK  278  A    between atoms: _684  and  _687
REMARK  279  A    between atoms: _687  and  _688
REMARK  280  A    between atoms: _688  and  _689
REMARK  281  A    between atoms: _691  and  _693
REMARK  282  A    between atoms: _693  and  _694
REMARK  283  A    between atoms: _696  and  _698
REMARK  284  A    between atoms: _698  and  _699
REMARK  285  A    between atoms: _702  and  _704
REMARK  286  A    between atoms: _704  and  _705
REMARK  287  A    between atoms: _704  and  _707
REMARK  288  A    between atoms: _710  and  _712
REMARK  289  A    between atoms: _712  and  _713
REMARK  290  A    between atoms: _712  and  _715
REMARK  291  A    between atoms: _715  and  _716
REMARK  292  A    between atoms: _716  and  _717
REMARK  293  A    between atoms: _719  and  _721
REMARK  294  A    between atoms: _721  and  _722
REMARK  295  A    between atoms: _721  and  _724
REMARK  296  A    between atoms: _724  and  _725
REMARK  297  A    between atoms: _725  and  _726
REMARK                            x       y       z     vdW  Elec       q    Type
REMARK                         _______ _______ _______ _____ _____    ______ ____
ROOT
ATOM      1  O   HOH     1       4.832  -3.826  27.369  0.00  0.00    +0.000 OA
ENDROOT
TORSDOF 0
REMARK  Name = ../refined-set-2016/2p4j/2p4j_pocket.pdb
REMARK  297 active torsions:
REMARK  status: ('A' for Active; 'I' for Inactive)
REMARK    1  A    between atoms: _1  and  _3
REMARK    2  A    between atoms: _3  and  _4
REMARK    3  A    between atoms: _6  and  _8
REMARK    4  A    between atoms: _8  and  _9
REMARK    5  A    between atoms: _8  and  _11
REMARK    6  A    between atoms: _11  and  _12
REMARK    7  A    between atoms: _12  and  _13
REMARK    8  A    between atoms: _13  and  _14
REMARK    9  A    between atoms: _14  and  _15
REMARK   10  A    between atoms: _19  and  _21
REMARK   11  A    between atoms: _21  and  _22
REMARK   12  A    between atoms: _21  and  _24
REMARK   13  A    between atoms: _24  and  _25
REMARK   14  A    between atoms: _27  and  _29
REMARK   15  A    between atoms: _29  and  _30
REMARK   16  A    between atoms: _32  and  _34
REMARK   17  A    between atoms: _34  and  _35
REMARK   18  A    between atoms: _34  and  _37
REMARK   19  A    between atoms: _37  and  _38
REMARK   20  A    between atoms: _38  and  _39
REMARK   21  A    between atoms: _44  and  _46
REMARK   22  A    between atoms: _46  and  _47
REMARK   23  A    between atoms: _49  and  _51
REMARK   24  A    between atoms: _51  and  _52
REMARK   25  A    between atoms: _51  and  _54
REMARK   26  A    between atoms: _54  and  _55
REMARK   27  A    between atoms: _60  and  _61
REMARK   28  A    between atoms: _63  and  _65
REMARK   29  A    between atoms: _65  and  _66
REMARK   30  A    between atoms: _65  and  _68
REMARK   31  A    between atoms: _68  and  _69
REMARK   32  A    between atoms: _72  and  _74
REMARK   33  A    between atoms: _74  and  _75
REMARK   34  A    between atoms: _74  and  _77
REMARK   35  A    between atoms: _80  and  _82
REMARK   36  A    between atoms: _82  and  _83
REMARK   37  A    between atoms: _82  and  _85
REMARK   38  A    between atoms: _85  and  _86
REMARK   39  A    between atoms: _89  and  _91
REMARK   40  A    between atoms: _91  and  _92
REMARK   41  A    between atoms: _91  and  _94
REMARK   42  A    between atoms: _94  and  _95
REMARK   43  A    between atoms: _98  and  _100
REMARK   44  A    between atoms: _100  and  _101
REMARK   45  A    between atoms: _103  and  _105
REMARK   46  A    between atoms: _105  and  _106
REMARK   47  A    between atoms: _105  and  _108
REMARK   48  A    between atoms: _108  and  _109
REMARK   49  A    between atoms: _111  and  _113
REMARK   50  A    between atoms: _113  and  _114
REMARK   51  A    between atoms: _113  and  _116
REMARK   52  A    between atoms: _116  and  _117
REMARK   53  A    between atoms: _119  and  _121
REMARK   54  A    between atoms: _121  and  _122
REMARK   55  A    between atoms: _121  and  _124
REMARK   56  A    between atoms: _124  and  _125
REMARK   57  A    between atoms: _130  and  _132
REMARK   58  A    between atoms: _132  and  _133
REMARK   59  A    between atoms: _132  and  _135
REMARK   60  A    between atoms: _135  and  _136
REMARK   61  A    between atoms: _141  and  _142
REMARK   62  A    between atoms: _144  and  _146
REMARK   63  A    between atoms: _146  and  _147
REMARK   64  A    between atoms: _146  and  _149
REMARK   65  A    between atoms: _153  and  _154
REMARK   66  A    between atoms: _159  and  _161
REMARK   67  A    between atoms: _161  and  _162
REMARK   68  A    between atoms: _161  and  _164
REMARK   69  A    between atoms: _164  and  _165
REMARK   70  A    between atoms: _170  and  _171
REMARK   71  A    between atoms: _173  and  _175
REMARK   72  A    between atoms: _175  and  _176
REMARK   73  A    between atoms: _175  and  _178
REMARK   74  A    between atoms: _178  and  _179
REMARK   75  A    between atoms: _182  and  _184
REMARK   76  A    between atoms: _184  and  _185
REMARK   77  A    between atoms: _184  and  _187
REMARK   78  A    between atoms: _187  and  _188
REMARK   79  A    between atoms: _188  and  _189
REMARK   80  A    between atoms: _194  and  _196
REMARK   81  A    between atoms: _196  and  _197
REMARK   82  A    between atoms: _199  and  _201
REMARK   83  A    between atoms: _201  and  _202
REMARK   84  A    between atoms: _201  and  _204
REMARK   85  A    between atoms: _204  and  _205
REMARK   86  A    between atoms: _205  and  _206
REMARK   87  A    between atoms: _206  and  _207
REMARK   88  A    between atoms: _207  and  _208
REMARK   89  A    between atoms: _212  and  _214
REMARK   90  A    between atoms: _214  and  _215
REMARK   91  A    between atoms: _214  and  _217
REMARK   92  A    between atoms: _217  and  _218
REMARK   93  A    between atoms: _228  and  _230
REMARK   94  A    between atoms: _230  and  _231
REMARK   95  A    between atoms: _230  and  _233
REMARK   96  A    between atoms: _233  and  _234
REMARK   97  A    between atoms: _237  and  _239
REMARK   98  A    between atoms: _239  and  _240
REMARK   99  A    between atoms: _239  and  _242
REMARK  100  A    between atoms: _242  and  _243
REMARK  101  A    between atoms: _243  and  _244
REMARK  102  A    between atoms: _244  and  _245
REMARK  103  A    between atoms: _245  and  _246
REMARK  104  A    between atoms: _250  and  _252
REMARK  105  A    between atoms: _252  and  _253
REMARK  106  A    between atoms: _252  and  _255
REMARK  107  A    between atoms: _255  and  _256
REMARK  108  A    between atoms: _262  and  _264
REMARK  109  A    between atoms: _264  and  _265
REMARK  110  A    between atoms: _264  and  _267
REMARK  111  A    between atoms: _267  and  _268
REMARK  112  A    between atoms: _274  and  _276
REMARK  113  A    between atoms: _276  and  _277
REMARK  114  A    between atoms: _276  and  _279
REMARK  115  A    between atoms: _279  and  _280
REMARK  116  A    between atoms: _283  and  _285
REMARK  117  A    between atoms: _285  and  _286
REMARK  118  A    between atoms: _285  and  _288
REMARK  119  A    between atoms: _288  and  _289
REMARK  120  A    between atoms: _291  and  _293
REMARK  121  A    between atoms: _293  and  _294
REMARK  122  A    between atoms: _293  and  _296
REMARK  123  A    between atoms: _296  and  _297
REMARK  124  A    between atoms: _307  and  _309
REMARK  125  A    between atoms: _309  and  _310
REMARK  126  A    between atoms: _312  and  _314
REMARK  127  A    between atoms: _314  and  _315
REMARK  128  A    between atoms: _314  and  _317
REMARK  129  A    between atoms: _317  and  _318
REMARK  130  A    between atoms: _321  and  _323
REMARK  131  A    between atoms: _323  and  _324
REMARK  132  A    between atoms: _323  and  _326
REMARK  133  A    between atoms: _326  and  _327
REMARK  134  A    between atoms: _330  and  _332
REMARK  135  A    between atoms: _332  and  _333
REMARK  136  A    between atoms: _332  and  _335
REMARK  137  A    between atoms: _335  and  _336
REMARK  138  A    between atoms: _339  and  _341
REMARK  139  A    between atoms: _341  and  _342
REMARK  140  A    between atoms: _345  and  _347
REMARK  141  A    between atoms: _347  and  _348
REMARK  142  A    between atoms: _347  and  _350
REMARK  143  A    between atoms: _350  and  _351
REMARK  144  A    between atoms: _356  and  _357
REMARK  145  A    between atoms: _359  and  _361
REMARK  146  A    between atoms: _361  and  _362
REMARK  147  A    between atoms: _361  and  _364
REMARK  148  A    between atoms: _364  and  _365
REMARK  149  A    between atoms: _365  and  _366
REMARK  150  A    between atoms: _369  and  _371
REMARK  151  A    between atoms: _371  and  _372
REMARK  152  A    between atoms: _371  and  _374
REMARK  153  A    between atoms: _374  and  _375
REMARK  154  A    between atoms: _378  and  _380
REMARK  155  A    between atoms: _380  and  _381
REMARK  156  A    between atoms: _384  and  _386
REMARK  157  A    between atoms: _386  and  _387
REMARK  158  A    between atoms: _386  and  _389
REMARK  159  A    between atoms: _389  and  _390
REMARK  160  A    between atoms: _390  and  _391
REMARK  161  A    between atoms: _391  and  _392
REMARK  162  A    between atoms: _401  and  _403
REMARK  163  A    between atoms: _403  and  _404
REMARK  164  A    between atoms: _403  and  _406
REMARK  165  A    between atoms: _406  and  _407
REMARK  166  A    between atoms: _410  and  _412
REMARK  167  A    between atoms: _412  and  _413
REMARK  168  A    between atoms: _412  and  _415
REMARK  169  A    between atoms: _415  and  _416
REMARK  170  A    between atoms: _426  and  _428
REMARK  171  A    between atoms: _428  and  _429
REMARK  172  A    between atoms: _428  and  _431
REMARK  173  A    between atoms: _431  and  _432
REMARK  174  A    between atoms: _437  and  _438
REMARK  175  A    between atoms: _440  and  _442
REMARK  176  A    between atoms: _442  and  _443
REMARK  177  A    between atoms: _442  and  _445
REMARK  178  A    between atoms: _445  and  _446
REMARK  179  A    between atoms: _451  and  _452
REMARK  180  A    between atoms: _454  and  _456
REMARK  181  A    between atoms: _456  and  _457
REMARK  182  A    between atoms: _456  and  _459
REMARK  183  A    between atoms: _459  and  _460
REMARK  184  A    between atoms: _460  and  _461
REMARK  185  A    between atoms: _461  and  _462
REMARK  186  A    between atoms: _462  and  _463
REMARK  187  A    between atoms: _467  and  _469
REMARK  188  A    between atoms: _469  and  _470
REMARK  189  A    between atoms: _469  and  _472
REMARK  190  A    between atoms: _472  and  _473
REMARK  191  A    between atoms: _476  and  _478
REMARK  192  A    between atoms: _478  and  _479
REMARK  193  A    between atoms: _478  and  _481
REMARK  194  A    between atoms: _484  and  _486
REMARK  195  A    between atoms: _486  and  _487
REMARK  196  A    between atoms: _486  and  _489
REMARK  197  A    between atoms: _489  and  _490
REMARK  198  A    between atoms: _493  and  _495
REMARK  199  A    between atoms: _495  and  _496
REMARK  200  A    between atoms: _495  and  _498
REMARK  201  A    between atoms: _498  and  _499
REMARK  202  A    between atoms: _501  and  _503
REMARK  203  A    between atoms: _503  and  _504
REMARK  204  A    between atoms: _506  and  _508
REMARK  205  A    between atoms: _508  and  _509
REMARK  206  A    between atoms: _508  and  _511
REMARK  207  A    between atoms: _511  and  _512
REMARK  208  A    between atoms: _515  and  _517
REMARK  209  A    between atoms: _517  and  _518
REMARK  210  A    between atoms: _517  and  _520
REMARK  211  A    between atoms: _520  and  _521
REMARK  212  A    between atoms: _524  and  _526
REMARK  213  A    between atoms: _526  and  _527
REMARK  214  A    between atoms: _526  and  _529
REMARK  215  A    between atoms: _529  and  _530
REMARK  216  A    between atoms: _535  and  _537
REMARK  217  A    between atoms: _537  and  _538
REMARK  218  A    between atoms: _537  and  _540
REMARK  219  A    between atoms: _540  and  _541
REMARK  220  A    between atoms: _544  and  _546
REMARK  221  A    between atoms: _546  and  _547
REMARK  222  A    between atoms: _546  and  _549
REMARK  223  A    between atoms: _549  and  _550
REMARK  224  A    between atoms: _550  and  _551
REMARK  225  A    between atoms: _551  and  _552
REMARK  226  A    between atoms: _561  and  _563
REMARK  227  A    between atoms: _563  and  _564
REMARK  228  A    between atoms: _563  and  _566
REMARK  229  A    between atoms: _566  and  _567
REMARK  230  A    between atoms: _570  and  _572
REMARK  231  A    between atoms: _572  and  _573
REMARK  232  A    between atoms: _572  and  _575
REMARK  233  A    between atoms: _575  and  _576
REMARK  234  A    between atoms: _579  and  _581
REMARK  235  A    between atoms: _581  and  _582
REMARK  236  A    between atoms: _584  and  _586
REMARK  237  A    between atoms: _586  and  _587
REMARK  238  A    between atoms: _586  and  _589
REMARK  239  A    between atoms: _589  and  _590
REMARK  240  A    between atoms: _590  and  _591
REMARK  241  A    between atoms: _591  and  _592
REMARK  242  A    between atoms: _601  and  _603
REMARK  243  A    between atoms: _603  and  _604
REMARK  244  A    between atoms: _603  and  _606
REMARK  245  A    between atoms: _606  and  _607
REMARK  246  A    between atoms: _613  and  _615
REMARK  247  A    between atoms: _615  and  _616
REMARK  248  A    between atoms: _619  and  _621
REMARK  249  A    between atoms: _621  and  _622
REMARK  250  A    between atoms: _621  and  _624
REMARK  251  A    between atoms: _624  and  _625
REMARK  252  A    between atoms: _628  and  _630
REMARK  253  A    between atoms: _630  and  _631
REMARK  254  A    between atoms: _630  and  _633
REMARK  255  A    between atoms: _633  and  _634
REMARK  256  A    between atoms: _636  and  _638
REMARK  257  A    between atoms: _638  and  _639
REMARK  258  A    between atoms: _638  and  _641
REMARK  259  A    between atoms: _641  and  _642
REMARK  260  A    between atoms: _642  and  _643
REMARK  261  A    between atoms: _648  and  _650
REMARK  262  A    between atoms: _650  and  _651
REMARK  263  A    between atoms: _650  and  _653
REMARK  264  A    between atoms: _653  and  _654
REMARK  265  A    between atoms: _656  and  _658
REMARK  266  A    between atoms: _658  and  _659
REMARK  267  A    between atoms: _658  and  _661
REMARK  268  A    between atoms: _661  and  _662
REMARK  269  A    between atoms: _665  and  _667
REMARK  270  A    between atoms: _667  and  _668
REMARK  271  A    between atoms: _667  and  _670
REMARK  272  A    between atoms: _670  and  _671
REMARK  273  A    between atoms: _674  and  _676
REMARK  274  A    between atoms: _676  and  _677
REMARK  275  A    between atoms: _676  and  _679
REMARK  276  A    between atoms: _682  and  _684
REMARK  277  A    between atoms: _684  and  _685
REMARK  278  A    between atoms: _684  and  _687
REMARK  279  A    between atoms: _687  and  _688
REMARK  280  A    between atoms: _688  and  _689
REMARK  281  A    between atoms: _691  and  _693
REMARK  282  A    between atoms: _693  and  _694
REMARK  283  A    between atoms: _696  and  _698
REMARK  284  A    between atoms: _698  and  _699
REMARK  285  A    between atoms: _702  and  _704
REMARK  286  A    between atoms: _704  and  _705
REMARK  287  A    between atoms: _704  and  _707
REMARK  288  A    between atoms: _710  and  _712
REMARK  289  A    between atoms: _712  and  _713
REMARK  290  A    between atoms: _712  and  _715
REMARK  291  A    between atoms: _715  and  _716
REMARK  292  A    between atoms: _716  and  _717
REMARK  293  A    between atoms: _719  and  _721
REMARK  294  A    between atoms: _721  and  _722
REMARK  295  A    between atoms: _721  and  _724
REMARK  296  A    between atoms: _724  and  _725
REMARK  297  A    between atoms: _725  and  _726
REMARK                            x       y       z     vdW  Elec       q    Type
REMARK                         _______ _______ _______ _____ _____    ______ ____
ROOT
ATOM      1  O   HOH     1     -12.942  -4.570  36.715  0.00  0.00    +0.000 OA
ENDROOT
TORSDOF 0
REMARK  Name = ../refined-set-2016/2p4j/2p4j_pocket.pdb
REMARK  297 active torsions:
REMARK  status: ('A' for Active; 'I' for Inactive)
REMARK    1  A    between atoms: _1  and  _3
REMARK    2  A    between atoms: _3  and  _4
REMARK    3  A    between atoms: _6  and  _8
REMARK    4  A    between atoms: _8  and  _9
REMARK    5  A    between atoms: _8  and  _11
REMARK    6  A    between atoms: _11  and  _12
REMARK    7  A    between atoms: _12  and  _13
REMARK    8  A    between atoms: _13  and  _14
REMARK    9  A    between atoms: _14  and  _15
REMARK   10  A    between atoms: _19  and  _21
REMARK   11  A    between atoms: _21  and  _22
REMARK   12  A    between atoms: _21  and  _24
REMARK   13  A    between atoms: _24  and  _25
REMARK   14  A    between atoms: _27  and  _29
REMARK   15  A    between atoms: _29  and  _30
REMARK   16  A    between atoms: _32  and  _34
REMARK   17  A    between atoms: _34  and  _35
REMARK   18  A    between atoms: _34  and  _37
REMARK   19  A    between atoms: _37  and  _38
REMARK   20  A    between atoms: _38  and  _39
REMARK   21  A    between atoms: _44  and  _46
REMARK   22  A    between atoms: _46  and  _47
REMARK   23  A    between atoms: _49  and  _51
REMARK   24  A    between atoms: _51  and  _52
REMARK   25  A    between atoms: _51  and  _54
REMARK   26  A    between atoms: _54  and  _55
REMARK   27  A    between atoms: _60  and  _61
REMARK   28  A    between atoms: _63  and  _65
REMARK   29  A    between atoms: _65  and  _66
REMARK   30  A    between atoms: _65  and  _68
REMARK   31  A    between atoms: _68  and  _69
REMARK   32  A    between atoms: _72  and  _74
REMARK   33  A    between atoms: _74  and  _75
REMARK   34  A    between atoms: _74  and  _77
REMARK   35  A    between atoms: _80  and  _82
REMARK   36  A    between atoms: _82  and  _83
REMARK   37  A    between atoms: _82  and  _85
REMARK   38  A    between atoms: _85  and  _86
REMARK   39  A    between atoms: _89  and  _91
REMARK   40  A    between atoms: _91  and  _92
REMARK   41  A    between atoms: _91  and  _94
REMARK   42  A    between atoms: _94  and  _95
REMARK   43  A    between atoms: _98  and  _100
REMARK   44  A    between atoms: _100  and  _101
REMARK   45  A    between atoms: _103  and  _105
REMARK   46  A    between atoms: _105  and  _106
REMARK   47  A    between atoms: _105  and  _108
REMARK   48  A    between atoms: _108  and  _109
REMARK   49  A    between atoms: _111  and  _113
REMARK   50  A    between atoms: _113  and  _114
REMARK   51  A    between atoms: _113  and  _116
REMARK   52  A    between atoms: _116  and  _117
REMARK   53  A    between atoms: _119  and  _121
REMARK   54  A    between atoms: _121  and  _122
REMARK   55  A    between atoms: _121  and  _124
REMARK   56  A    between atoms: _124  and  _125
REMARK   57  A    between atoms: _130  and  _132
REMARK   58  A    between atoms: _132  and  _133
REMARK   59  A    between atoms: _132  and  _135
REMARK   60  A    between atoms: _135  and  _136
REMARK   61  A    between atoms: _141  and  _142
REMARK   62  A    between atoms: _144  and  _146
REMARK   63  A    between atoms: _146  and  _147
REMARK   64  A    between atoms: _146  and  _149
REMARK   65  A    between atoms: _153  and  _154
REMARK   66  A    between atoms: _159  and  _161
REMARK   67  A    between atoms: _161  and  _162
REMARK   68  A    between atoms: _161  and  _164
REMARK   69  A    between atoms: _164  and  _165
REMARK   70  A    between atoms: _170  and  _171
REMARK   71  A    between atoms: _173  and  _175
REMARK   72  A    between atoms: _175  and  _176
REMARK   73  A    between atoms: _175  and  _178
REMARK   74  A    between atoms: _178  and  _179
REMARK   75  A    between atoms: _182  and  _184
REMARK   76  A    between atoms: _184  and  _185
REMARK   77  A    between atoms: _184  and  _187
REMARK   78  A    between atoms: _187  and  _188
REMARK   79  A    between atoms: _188  and  _189
REMARK   80  A    between atoms: _194  and  _196
REMARK   81  A    between atoms: _196  and  _197
REMARK   82  A    between atoms: _199  and  _201
REMARK   83  A    between atoms: _201  and  _202
REMARK   84  A    between atoms: _201  and  _204
REMARK   85  A    between atoms: _204  and  _205
REMARK   86  A    between atoms: _205  and  _206
REMARK   87  A    between atoms: _206  and  _207
REMARK   88  A    between atoms: _207  and  _208
REMARK   89  A    between atoms: _212  and  _214
REMARK   90  A    between atoms: _214  and  _215
REMARK   91  A    between atoms: _214  and  _217
REMARK   92  A    between atoms: _217  and  _218
REMARK   93  A    between atoms: _228  and  _230
REMARK   94  A    between atoms: _230  and  _231
REMARK   95  A    between atoms: _230  and  _233
REMARK   96  A    between atoms: _233  and  _234
REMARK   97  A    between atoms: _237  and  _239
REMARK   98  A    between atoms: _239  and  _240
REMARK   99  A    between atoms: _239  and  _242
REMARK  100  A    between atoms: _242  and  _243
REMARK  101  A    between atoms: _243  and  _244
REMARK  102  A    between atoms: _244  and  _245
REMARK  103  A    between atoms: _245  and  _246
REMARK  104  A    between atoms: _250  and  _252
REMARK  105  A    between atoms: _252  and  _253
REMARK  106  A    between atoms: _252  and  _255
REMARK  107  A    between atoms: _255  and  _256
REMARK  108  A    between atoms: _262  and  _264
REMARK  109  A    between atoms: _264  and  _265
REMARK  110  A    between atoms: _264  and  _267
REMARK  111  A    between atoms: _267  and  _268
REMARK  112  A    between atoms: _274  and  _276
REMARK  113  A    between atoms: _276  and  _277
REMARK  114  A    between atoms: _276  and  _279
REMARK  115  A    between atoms: _279  and  _280
REMARK  116  A    between atoms: _283  and  _285
REMARK  117  A    between atoms: _285  and  _286
REMARK  118  A    between atoms: _285  and  _288
REMARK  119  A    between atoms: _288  and  _289
REMARK  120  A    between atoms: _291  and  _293
REMARK  121  A    between atoms: _293  and  _294
REMARK  122  A    between atoms: _293  and  _296
REMARK  123  A    between atoms: _296  and  _297
REMARK  124  A    between atoms: _307  and  _309
REMARK  125  A    between atoms: _309  and  _310
REMARK  126  A    between atoms: _312  and  _314
REMARK  127  A    between atoms: _314  and  _315
REMARK  128  A    between atoms: _314  and  _317
REMARK  129  A    between atoms: _317  and  _318
REMARK  130  A    between atoms: _321  and  _323
REMARK  131  A    between atoms: _323  and  _324
REMARK  132  A    between atoms: _323  and  _326
REMARK  133  A    between atoms: _326  and  _327
REMARK  134  A    between atoms: _330  and  _332
REMARK  135  A    between atoms: _332  and  _333
REMARK  136  A    between atoms: _332  and  _335
REMARK  137  A    between atoms: _335  and  _336
REMARK  138  A    between atoms: _339  and  _341
REMARK  139  A    between atoms: _341  and  _342
REMARK  140  A    between atoms: _345  and  _347
REMARK  141  A    between atoms: _347  and  _348
REMARK  142  A    between atoms: _347  and  _350
REMARK  143  A    between atoms: _350  and  _351
REMARK  144  A    between atoms: _356  and  _357
REMARK  145  A    between atoms: _359  and  _361
REMARK  146  A    between atoms: _361  and  _362
REMARK  147  A    between atoms: _361  and  _364
REMARK  148  A    between atoms: _364  and  _365
REMARK  149  A    between atoms: _365  and  _366
REMARK  150  A    between atoms: _369  and  _371
REMARK  151  A    between atoms: _371  and  _372
REMARK  152  A    between atoms: _371  and  _374
REMARK  153  A    between atoms: _374  and  _375
REMARK  154  A    between atoms: _378  and  _380
REMARK  155  A    between atoms: _380  and  _381
REMARK  156  A    between atoms: _384  and  _386
REMARK  157  A    between atoms: _386  and  _387
REMARK  158  A    between atoms: _386  and  _389
REMARK  159  A    between atoms: _389  and  _390
REMARK  160  A    between atoms: _390  and  _391
REMARK  161  A    between atoms: _391  and  _392
REMARK  162  A    between atoms: _401  and  _403
REMARK  163  A    between atoms: _403  and  _404
REMARK  164  A    between atoms: _403  and  _406
REMARK  165  A    between atoms: _406  and  _407
REMARK  166  A    between atoms: _410  and  _412
REMARK  167  A    between atoms: _412  and  _413
REMARK  168  A    between atoms: _412  and  _415
REMARK  169  A    between atoms: _415  and  _416
REMARK  170  A    between atoms: _426  and  _428
REMARK  171  A    between atoms: _428  and  _429
REMARK  172  A    between atoms: _428  and  _431
REMARK  173  A    between atoms: _431  and  _432
REMARK  174  A    between atoms: _437  and  _438
REMARK  175  A    between atoms: _440  and  _442
REMARK  176  A    between atoms: _442  and  _443
REMARK  177  A    between atoms: _442  and  _445
REMARK  178  A    between atoms: _445  and  _446
REMARK  179  A    between atoms: _451  and  _452
REMARK  180  A    between atoms: _454  and  _456
REMARK  181  A    between atoms: _456  and  _457
REMARK  182  A    between atoms: _456  and  _459
REMARK  183  A    between atoms: _459  and  _460
REMARK  184  A    between atoms: _460  and  _461
REMARK  185  A    between atoms: _461  and  _462
REMARK  186  A    between atoms: _462  and  _463
REMARK  187  A    between atoms: _467  and  _469
REMARK  188  A    between atoms: _469  and  _470
REMARK  189  A    between atoms: _469  and  _472
REMARK  190  A    between atoms: _472  and  _473
REMARK  191  A    between atoms: _476  and  _478
REMARK  192  A    between atoms: _478  and  _479
REMARK  193  A    between atoms: _478  and  _481
REMARK  194  A    between atoms: _484  and  _486
REMARK  195  A    between atoms: _486  and  _487
REMARK  196  A    between atoms: _486  and  _489
REMARK  197  A    between atoms: _489  and  _490
REMARK  198  A    between atoms: _493  and  _495
REMARK  199  A    between atoms: _495  and  _496
REMARK  200  A    between atoms: _495  and  _498
REMARK  201  A    between atoms: _498  and  _499
REMARK  202  A    between atoms: _501  and  _503
REMARK  203  A    between atoms: _503  and  _504
REMARK  204  A    between atoms: _506  and  _508
REMARK  205  A    between atoms: _508  and  _509
REMARK  206  A    between atoms: _508  and  _511
REMARK  207  A    between atoms: _511  and  _512
REMARK  208  A    between atoms: _515  and  _517
REMARK  209  A    between atoms: _517  and  _518
REMARK  210  A    between atoms: _517  and  _520
REMARK  211  A    between atoms: _520  and  _521
REMARK  212  A    between atoms: _524  and  _526
REMARK  213  A    between atoms: _526  and  _527
REMARK  214  A    between atoms: _526  and  _529
REMARK  215  A    between atoms: _529  and  _530
REMARK  216  A    between atoms: _535  and  _537
REMARK  217  A    between atoms: _537  and  _538
REMARK  218  A    between atoms: _537  and  _540
REMARK  219  A    between atoms: _540  and  _541
REMARK  220  A    between atoms: _544  and  _546
REMARK  221  A    between atoms: _546  and  _547
REMARK  222  A    between atoms: _546  and  _549
REMARK  223  A    between atoms: _549  and  _550
REMARK  224  A    between atoms: _550  and  _551
REMARK  225  A    between atoms: _551  and  _552
REMARK  226  A    between atoms: _561  and  _563
REMARK  227  A    between atoms: _563  and  _564
REMARK  228  A    between atoms: _563  and  _566
REMARK  229  A    between atoms: _566  and  _567
REMARK  230  A    between atoms: _570  and  _572
REMARK  231  A    between atoms: _572  and  _573
REMARK  232  A    between atoms: _572  and  _575
REMARK  233  A    between atoms: _575  and  _576
REMARK  234  A    between atoms: _579  and  _581
REMARK  235  A    between atoms: _581  and  _582
REMARK  236  A    between atoms: _584  and  _586
REMARK  237  A    between atoms: _586  and  _587
REMARK  238  A    between atoms: _586  and  _589
REMARK  239  A    between atoms: _589  and  _590
REMARK  240  A    between atoms: _590  and  _591
REMARK  241  A    between atoms: _591  and  _592
REMARK  242  A    between atoms: _601  and  _603
REMARK  243  A    between atoms: _603  and  _604
REMARK  244  A    between atoms: _603  and  _606
REMARK  245  A    between atoms: _606  and  _607
REMARK  246  A    between atoms: _613  and  _615
REMARK  247  A    between atoms: _615  and  _616
REMARK  248  A    between atoms: _619  and  _621
REMARK  249  A    between atoms: _621  and  _622
REMARK  250  A    between atoms: _621  and  _624
REMARK  251  A    between atoms: _624  and  _625
REMARK  252  A    between atoms: _628  and  _630
REMARK  253  A    between atoms: _630  and  _631
REMARK  254  A    between atoms: _630  and  _633
REMARK  255  A    between atoms: _633  and  _634
REMARK  256  A    between atoms: _636  and  _638
REMARK  257  A    between atoms: _638  and  _639
REMARK  258  A    between atoms: _638  and  _641
REMARK  259  A    between atoms: _641  and  _642
REMARK  260  A    between atoms: _642  and  _643
REMARK  261  A    between atoms: _648  and  _650
REMARK  262  A    between atoms: _650  and  _651
REMARK  263  A    between atoms: _650  and  _653
REMARK  264  A    between atoms: _653  and  _654
REMARK  265  A    between atoms: _656  and  _658
REMARK  266  A    between atoms: _658  and  _659
REMARK  267  A    between atoms: _658  and  _661
REMARK  268  A    between atoms: _661  and  _662
REMARK  269  A    between atoms: _665  and  _667
REMARK  270  A    between atoms: _667  and  _668
REMARK  271  A    between atoms: _667  and  _670
REMARK  272  A    between atoms: _670  and  _671
REMARK  273  A    between atoms: _674  and  _676
REMARK  274  A    between atoms: _676  and  _677
REMARK  275  A    between atoms: _676  and  _679
REMARK  276  A    between atoms: _682  and  _684
REMARK  277  A    between atoms: _684  and  _685
REMARK  278  A    between atoms: _684  and  _687
REMARK  279  A    between atoms: _687  and  _688
REMARK  280  A    between atoms: _688  and  _689
REMARK  281  A    between atoms: _691  and  _693
REMARK  282  A    between atoms: _693  and  _694
REMARK  283  A    between atoms: _696  and  _698
REMARK  284  A    between atoms: _698  and  _699
REMARK  285  A    between atoms: _702  and  _704
REMARK  286  A    between atoms: _704  and  _705
REMARK  287  A    between atoms: _704  and  _707
REMARK  288  A    between atoms: _710  and  _712
REMARK  289  A    between atoms: _712  and  _713
REMARK  290  A    between atoms: _712  and  _715
REMARK  291  A    between atoms: _715  and  _716
REMARK  292  A    between atoms: _716  and  _717
REMARK  293  A    between atoms: _719  and  _721
REMARK  294  A    between atoms: _721  and  _722
REMARK  295  A    between atoms: _721  and  _724
REMARK  296  A    between atoms: _724  and  _725
REMARK  297  A    between atoms: _725  and  _726
REMARK                            x       y       z     vdW  Elec       q    Type
REMARK                         _______ _______ _______ _____ _____    ______ ____
ROOT
ATOM      1  O   HOH     1     -17.445  -4.827  27.653  0.00  0.00    +0.000 OA
ENDROOT
TORSDOF 0
REMARK  Name = ../refined-set-2016/2p4j/2p4j_pocket.pdb
REMARK  297 active torsions:
REMARK  status: ('A' for Active; 'I' for Inactive)
REMARK    1  A    between atoms: _1  and  _3
REMARK    2  A    between atoms: _3  and  _4
REMARK    3  A    between atoms: _6  and  _8
REMARK    4  A    between atoms: _8  and  _9
REMARK    5  A    between atoms: _8  and  _11
REMARK    6  A    between atoms: _11  and  _12
REMARK    7  A    between atoms: _12  and  _13
REMARK    8  A    between atoms: _13  and  _14
REMARK    9  A    between atoms: _14  and  _15
REMARK   10  A    between atoms: _19  and  _21
REMARK   11  A    between atoms: _21  and  _22
REMARK   12  A    between atoms: _21  and  _24
REMARK   13  A    between atoms: _24  and  _25
REMARK   14  A    between atoms: _27  and  _29
REMARK   15  A    between atoms: _29  and  _30
REMARK   16  A    between atoms: _32  and  _34
REMARK   17  A    between atoms: _34  and  _35
REMARK   18  A    between atoms: _34  and  _37
REMARK   19  A    between atoms: _37  and  _38
REMARK   20  A    between atoms: _38  and  _39
REMARK   21  A    between atoms: _44  and  _46
REMARK   22  A    between atoms: _46  and  _47
REMARK   23  A    between atoms: _49  and  _51
REMARK   24  A    between atoms: _51  and  _52
REMARK   25  A    between atoms: _51  and  _54
REMARK   26  A    between atoms: _54  and  _55
REMARK   27  A    between atoms: _60  and  _61
REMARK   28  A    between atoms: _63  and  _65
REMARK   29  A    between atoms: _65  and  _66
REMARK   30  A    between atoms: _65  and  _68
REMARK   31  A    between atoms: _68  and  _69
REMARK   32  A    between atoms: _72  and  _74
REMARK   33  A    between atoms: _74  and  _75
REMARK   34  A    between atoms: _74  and  _77
REMARK   35  A    between atoms: _80  and  _82
REMARK   36  A    between atoms: _82  and  _83
REMARK   37  A    between atoms: _82  and  _85
REMARK   38  A    between atoms: _85  and  _86
REMARK   39  A    between atoms: _89  and  _91
REMARK   40  A    between atoms: _91  and  _92
REMARK   41  A    between atoms: _91  and  _94
REMARK   42  A    between atoms: _94  and  _95
REMARK   43  A    between atoms: _98  and  _100
REMARK   44  A    between atoms: _100  and  _101
REMARK   45  A    between atoms: _103  and  _105
REMARK   46  A    between atoms: _105  and  _106
REMARK   47  A    between atoms: _105  and  _108
REMARK   48  A    between atoms: _108  and  _109
REMARK   49  A    between atoms: _111  and  _113
REMARK   50  A    between atoms: _113  and  _114
REMARK   51  A    between atoms: _113  and  _116
REMARK   52  A    between atoms: _116  and  _117
REMARK   53  A    between atoms: _119  and  _121
REMARK   54  A    between atoms: _121  and  _122
REMARK   55  A    between atoms: _121  and  _124
REMARK   56  A    between atoms: _124  and  _125
REMARK   57  A    between atoms: _130  and  _132
REMARK   58  A    between atoms: _132  and  _133
REMARK   59  A    between atoms: _132  and  _135
REMARK   60  A    between atoms: _135  and  _136
REMARK   61  A    between atoms: _141  and  _142
REMARK   62  A    between atoms: _144  and  _146
REMARK   63  A    between atoms: _146  and  _147
REMARK   64  A    between atoms: _146  and  _149
REMARK   65  A    between atoms: _153  and  _154
REMARK   66  A    between atoms: _159  and  _161
REMARK   67  A    between atoms: _161  and  _162
REMARK   68  A    between atoms: _161  and  _164
REMARK   69  A    between atoms: _164  and  _165
REMARK   70  A    between atoms: _170  and  _171
REMARK   71  A    between atoms: _173  and  _175
REMARK   72  A    between atoms: _175  and  _176
REMARK   73  A    between atoms: _175  and  _178
REMARK   74  A    between atoms: _178  and  _179
REMARK   75  A    between atoms: _182  and  _184
REMARK   76  A    between atoms: _184  and  _185
REMARK   77  A    between atoms: _184  and  _187
REMARK   78  A    between atoms: _187  and  _188
REMARK   79  A    between atoms: _188  and  _189
REMARK   80  A    between atoms: _194  and  _196
REMARK   81  A    between atoms: _196  and  _197
REMARK   82  A    between atoms: _199  and  _201
REMARK   83  A    between atoms: _201  and  _202
REMARK   84  A    between atoms: _201  and  _204
REMARK   85  A    between atoms: _204  and  _205
REMARK   86  A    between atoms: _205  and  _206
REMARK   87  A    between atoms: _206  and  _207
REMARK   88  A    between atoms: _207  and  _208
REMARK   89  A    between atoms: _212  and  _214
REMARK   90  A    between atoms: _214  and  _215
REMARK   91  A    between atoms: _214  and  _217
REMARK   92  A    between atoms: _217  and  _218
REMARK   93  A    between atoms: _228  and  _230
REMARK   94  A    between atoms: _230  and  _231
REMARK   95  A    between atoms: _230  and  _233
REMARK   96  A    between atoms: _233  and  _234
REMARK   97  A    between atoms: _237  and  _239
REMARK   98  A    between atoms: _239  and  _240
REMARK   99  A    between atoms: _239  and  _242
REMARK  100  A    between atoms: _242  and  _243
REMARK  101  A    between atoms: _243  and  _244
REMARK  102  A    between atoms: _244  and  _245
REMARK  103  A    between atoms: _245  and  _246
REMARK  104  A    between atoms: _250  and  _252
REMARK  105  A    between atoms: _252  and  _253
REMARK  106  A    between atoms: _252  and  _255
REMARK  107  A    between atoms: _255  and  _256
REMARK  108  A    between atoms: _262  and  _264
REMARK  109  A    between atoms: _264  and  _265
REMARK  110  A    between atoms: _264  and  _267
REMARK  111  A    between atoms: _267  and  _268
REMARK  112  A    between atoms: _274  and  _276
REMARK  113  A    between atoms: _276  and  _277
REMARK  114  A    between atoms: _276  and  _279
REMARK  115  A    between atoms: _279  and  _280
REMARK  116  A    between atoms: _283  and  _285
REMARK  117  A    between atoms: _285  and  _286
REMARK  118  A    between atoms: _285  and  _288
REMARK  119  A    between atoms: _288  and  _289
REMARK  120  A    between atoms: _291  and  _293
REMARK  121  A    between atoms: _293  and  _294
REMARK  122  A    between atoms: _293  and  _296
REMARK  123  A    between atoms: _296  and  _297
REMARK  124  A    between atoms: _307  and  _309
REMARK  125  A    between atoms: _309  and  _310
REMARK  126  A    between atoms: _312  and  _314
REMARK  127  A    between atoms: _314  and  _315
REMARK  128  A    between atoms: _314  and  _317
REMARK  129  A    between atoms: _317  and  _318
REMARK  130  A    between atoms: _321  and  _323
REMARK  131  A    between atoms: _323  and  _324
REMARK  132  A    between atoms: _323  and  _326
REMARK  133  A    between atoms: _326  and  _327
REMARK  134  A    between atoms: _330  and  _332
REMARK  135  A    between atoms: _332  and  _333
REMARK  136  A    between atoms: _332  and  _335
REMARK  137  A    between atoms: _335  and  _336
REMARK  138  A    between atoms: _339  and  _341
REMARK  139  A    between atoms: _341  and  _342
REMARK  140  A    between atoms: _345  and  _347
REMARK  141  A    between atoms: _347  and  _348
REMARK  142  A    between atoms: _347  and  _350
REMARK  143  A    between atoms: _350  and  _351
REMARK  144  A    between atoms: _356  and  _357
REMARK  145  A    between atoms: _359  and  _361
REMARK  146  A    between atoms: _361  and  _362
REMARK  147  A    between atoms: _361  and  _364
REMARK  148  A    between atoms: _364  and  _365
REMARK  149  A    between atoms: _365  and  _366
REMARK  150  A    between atoms: _369  and  _371
REMARK  151  A    between atoms: _371  and  _372
REMARK  152  A    between atoms: _371  and  _374
REMARK  153  A    between atoms: _374  and  _375
REMARK  154  A    between atoms: _378  and  _380
REMARK  155  A    between atoms: _380  and  _381
REMARK  156  A    between atoms: _384  and  _386
REMARK  157  A    between atoms: _386  and  _387
REMARK  158  A    between atoms: _386  and  _389
REMARK  159  A    between atoms: _389  and  _390
REMARK  160  A    between atoms: _390  and  _391
REMARK  161  A    between atoms: _391  and  _392
REMARK  162  A    between atoms: _401  and  _403
REMARK  163  A    between atoms: _403  and  _404
REMARK  164  A    between atoms: _403  and  _406
REMARK  165  A    between atoms: _406  and  _407
REMARK  166  A    between atoms: _410  and  _412
REMARK  167  A    between atoms: _412  and  _413
REMARK  168  A    between atoms: _412  and  _415
REMARK  169  A    between atoms: _415  and  _416
REMARK  170  A    between atoms: _426  and  _428
REMARK  171  A    between atoms: _428  and  _429
REMARK  172  A    between atoms: _428  and  _431
REMARK  173  A    between atoms: _431  and  _432
REMARK  174  A    between atoms: _437  and  _438
REMARK  175  A    between atoms: _440  and  _442
REMARK  176  A    between atoms: _442  and  _443
REMARK  177  A    between atoms: _442  and  _445
REMARK  178  A    between atoms: _445  and  _446
REMARK  179  A    between atoms: _451  and  _452
REMARK  180  A    between atoms: _454  and  _456
REMARK  181  A    between atoms: _456  and  _457
REMARK  182  A    between atoms: _456  and  _459
REMARK  183  A    between atoms: _459  and  _460
REMARK  184  A    between atoms: _460  and  _461
REMARK  185  A    between atoms: _461  and  _462
REMARK  186  A    between atoms: _462  and  _463
REMARK  187  A    between atoms: _467  and  _469
REMARK  188  A    between atoms: _469  and  _470
REMARK  189  A    between atoms: _469  and  _472
REMARK  190  A    between atoms: _472  and  _473
REMARK  191  A    between atoms: _476  and  _478
REMARK  192  A    between atoms: _478  and  _479
REMARK  193  A    between atoms: _478  and  _481
REMARK  194  A    between atoms: _484  and  _486
REMARK  195  A    between atoms: _486  and  _487
REMARK  196  A    between atoms: _486  and  _489
REMARK  197  A    between atoms: _489  and  _490
REMARK  198  A    between atoms: _493  and  _495
REMARK  199  A    between atoms: _495  and  _496
REMARK  200  A    between atoms: _495  and  _498
REMARK  201  A    between atoms: _498  and  _499
REMARK  202  A    between atoms: _501  and  _503
REMARK  203  A    between atoms: _503  and  _504
REMARK  204  A    between atoms: _506  and  _508
REMARK  205  A    between atoms: _508  and  _509
REMARK  206  A    between atoms: _508  and  _511
REMARK  207  A    between atoms: _511  and  _512
REMARK  208  A    between atoms: _515  and  _517
REMARK  209  A    between atoms: _517  and  _518
REMARK  210  A    between atoms: _517  and  _520
REMARK  211  A    between atoms: _520  and  _521
REMARK  212  A    between atoms: _524  and  _526
REMARK  213  A    between atoms: _526  and  _527
REMARK  214  A    between atoms: _526  and  _529
REMARK  215  A    between atoms: _529  and  _530
REMARK  216  A    between atoms: _535  and  _537
REMARK  217  A    between atoms: _537  and  _538
REMARK  218  A    between atoms: _537  and  _540
REMARK  219  A    between atoms: _540  and  _541
REMARK  220  A    between atoms: _544  and  _546
REMARK  221  A    between atoms: _546  and  _547
REMARK  222  A    between atoms: _546  and  _549
REMARK  223  A    between atoms: _549  and  _550
REMARK  224  A    between atoms: _550  and  _551
REMARK  225  A    between atoms: _551  and  _552
REMARK  226  A    between atoms: _561  and  _563
REMARK  227  A    between atoms: _563  and  _564
REMARK  228  A    between atoms: _563  and  _566
REMARK  229  A    between atoms: _566  and  _567
REMARK  230  A    between atoms: _570  and  _572
REMARK  231  A    between atoms: _572  and  _573
REMARK  232  A    between atoms: _572  and  _575
REMARK  233  A    between atoms: _575  and  _576
REMARK  234  A    between atoms: _579  and  _581
REMARK  235  A    between atoms: _581  and  _582
REMARK  236  A    between atoms: _584  and  _586
REMARK  237  A    between atoms: _586  and  _587
REMARK  238  A    between atoms: _586  and  _589
REMARK  239  A    between atoms: _589  and  _590
REMARK  240  A    between atoms: _590  and  _591
REMARK  241  A    between atoms: _591  and  _592
REMARK  242  A    between atoms: _601  and  _603
REMARK  243  A    between atoms: _603  and  _604
REMARK  244  A    between atoms: _603  and  _606
REMARK  245  A    between atoms: _606  and  _607
REMARK  246  A    between atoms: _613  and  _615
REMARK  247  A    between atoms: _615  and  _616
REMARK  248  A    between atoms: _619  and  _621
REMARK  249  A    between atoms: _621  and  _622
REMARK  250  A    between atoms: _621  and  _624
REMARK  251  A    between atoms: _624  and  _625
REMARK  252  A    between atoms: _628  and  _630
REMARK  253  A    between atoms: _630  and  _631
REMARK  254  A    between atoms: _630  and  _633
REMARK  255  A    between atoms: _633  and  _634
REMARK  256  A    between atoms: _636  and  _638
REMARK  257  A    between atoms: _638  and  _639
REMARK  258  A    between atoms: _638  and  _641
REMARK  259  A    between atoms: _641  and  _642
REMARK  260  A    between atoms: _642  and  _643
REMARK  261  A    between atoms: _648  and  _650
REMARK  262  A    between atoms: _650  and  _651
REMARK  263  A    between atoms: _650  and  _653
REMARK  264  A    between atoms: _653  and  _654
REMARK  265  A    between atoms: _656  and  _658
REMARK  266  A    between atoms: _658  and  _659
REMARK  267  A    between atoms: _658  and  _661
REMARK  268  A    between atoms: _661  and  _662
REMARK  269  A    between atoms: _665  and  _667
REMARK  270  A    between atoms: _667  and  _668
REMARK  271  A    between atoms: _667  and  _670
REMARK  272  A    between atoms: _670  and  _671
REMARK  273  A    between atoms: _674  and  _676
REMARK  274  A    between atoms: _676  and  _677
REMARK  275  A    between atoms: _676  and  _679
REMARK  276  A    between atoms: _682  and  _684
REMARK  277  A    between atoms: _684  and  _685
REMARK  278  A    between atoms: _684  and  _687
REMARK  279  A    between atoms: _687  and  _688
REMARK  280  A    between atoms: _688  and  _689
REMARK  281  A    between atoms: _691  and  _693
REMARK  282  A    between atoms: _693  and  _694
REMARK  283  A    between atoms: _696  and  _698
REMARK  284  A    between atoms: _698  and  _699
REMARK  285  A    between atoms: _702  and  _704
REMARK  286  A    between atoms: _704  and  _705
REMARK  287  A    between atoms: _704  and  _707
REMARK  288  A    between atoms: _710  and  _712
REMARK  289  A    between atoms: _712  and  _713
REMARK  290  A    between atoms: _712  and  _715
REMARK  291  A    between atoms: _715  and  _716
REMARK  292  A    between atoms: _716  and  _717
REMARK  293  A    between atoms: _719  and  _721
REMARK  294  A    between atoms: _721  and  _722
REMARK  295  A    between atoms: _721  and  _724
REMARK  296  A    between atoms: _724  and  _725
REMARK  297  A    between atoms: _725  and  _726
REMARK                            x       y       z     vdW  Elec       q    Type
REMARK                         _______ _______ _______ _____ _____    ______ ____
ROOT
ATOM      1  O   HOH     1      -9.337  -6.638  25.188  0.00  0.00    +0.000 OA
ENDROOT
TORSDOF 0
REMARK  Name = ../refined-set-2016/2p4j/2p4j_pocket.pdb
REMARK  297 active torsions:
REMARK  status: ('A' for Active; 'I' for Inactive)
REMARK    1  A    between atoms: _1  and  _3
REMARK    2  A    between atoms: _3  and  _4
REMARK    3  A    between atoms: _6  and  _8
REMARK    4  A    between atoms: _8  and  _9
REMARK    5  A    between atoms: _8  and  _11
REMARK    6  A    between atoms: _11  and  _12
REMARK    7  A    between atoms: _12  and  _13
REMARK    8  A    between atoms: _13  and  _14
REMARK    9  A    between atoms: _14  and  _15
REMARK   10  A    between atoms: _19  and  _21
REMARK   11  A    between atoms: _21  and  _22
REMARK   12  A    between atoms: _21  and  _24
REMARK   13  A    between atoms: _24  and  _25
REMARK   14  A    between atoms: _27  and  _29
REMARK   15  A    between atoms: _29  and  _30
REMARK   16  A    between atoms: _32  and  _34
REMARK   17  A    between atoms: _34  and  _35
REMARK   18  A    between atoms: _34  and  _37
REMARK   19  A    between atoms: _37  and  _38
REMARK   20  A    between atoms: _38  and  _39
REMARK   21  A    between atoms: _44  and  _46
REMARK   22  A    between atoms: _46  and  _47
REMARK   23  A    between atoms: _49  and  _51
REMARK   24  A    between atoms: _51  and  _52
REMARK   25  A    between atoms: _51  and  _54
REMARK   26  A    between atoms: _54  and  _55
REMARK   27  A    between atoms: _60  and  _61
REMARK   28  A    between atoms: _63  and  _65
REMARK   29  A    between atoms: _65  and  _66
REMARK   30  A    between atoms: _65  and  _68
REMARK   31  A    between atoms: _68  and  _69
REMARK   32  A    between atoms: _72  and  _74
REMARK   33  A    between atoms: _74  and  _75
REMARK   34  A    between atoms: _74  and  _77
REMARK   35  A    between atoms: _80  and  _82
REMARK   36  A    between atoms: _82  and  _83
REMARK   37  A    between atoms: _82  and  _85
REMARK   38  A    between atoms: _85  and  _86
REMARK   39  A    between atoms: _89  and  _91
REMARK   40  A    between atoms: _91  and  _92
REMARK   41  A    between atoms: _91  and  _94
REMARK   42  A    between atoms: _94  and  _95
REMARK   43  A    between atoms: _98  and  _100
REMARK   44  A    between atoms: _100  and  _101
REMARK   45  A    between atoms: _103  and  _105
REMARK   46  A    between atoms: _105  and  _106
REMARK   47  A    between atoms: _105  and  _108
REMARK   48  A    between atoms: _108  and  _109
REMARK   49  A    between atoms: _111  and  _113
REMARK   50  A    between atoms: _113  and  _114
REMARK   51  A    between atoms: _113  and  _116
REMARK   52  A    between atoms: _116  and  _117
REMARK   53  A    between atoms: _119  and  _121
REMARK   54  A    between atoms: _121  and  _122
REMARK   55  A    between atoms: _121  and  _124
REMARK   56  A    between atoms: _124  and  _125
REMARK   57  A    between atoms: _130  and  _132
REMARK   58  A    between atoms: _132  and  _133
REMARK   59  A    between atoms: _132  and  _135
REMARK   60  A    between atoms: _135  and  _136
REMARK   61  A    between atoms: _141  and  _142
REMARK   62  A    between atoms: _144  and  _146
REMARK   63  A    between atoms: _146  and  _147
REMARK   64  A    between atoms: _146  and  _149
REMARK   65  A    between atoms: _153  and  _154
REMARK   66  A    between atoms: _159  and  _161
REMARK   67  A    between atoms: _161  and  _162
REMARK   68  A    between atoms: _161  and  _164
REMARK   69  A    between atoms: _164  and  _165
REMARK   70  A    between atoms: _170  and  _171
REMARK   71  A    between atoms: _173  and  _175
REMARK   72  A    between atoms: _175  and  _176
REMARK   73  A    between atoms: _175  and  _178
REMARK   74  A    between atoms: _178  and  _179
REMARK   75  A    between atoms: _182  and  _184
REMARK   76  A    between atoms: _184  and  _185
REMARK   77  A    between atoms: _184  and  _187
REMARK   78  A    between atoms: _187  and  _188
REMARK   79  A    between atoms: _188  and  _189
REMARK   80  A    between atoms: _194  and  _196
REMARK   81  A    between atoms: _196  and  _197
REMARK   82  A    between atoms: _199  and  _201
REMARK   83  A    between atoms: _201  and  _202
REMARK   84  A    between atoms: _201  and  _204
REMARK   85  A    between atoms: _204  and  _205
REMARK   86  A    between atoms: _205  and  _206
REMARK   87  A    between atoms: _206  and  _207
REMARK   88  A    between atoms: _207  and  _208
REMARK   89  A    between atoms: _212  and  _214
REMARK   90  A    between atoms: _214  and  _215
REMARK   91  A    between atoms: _214  and  _217
REMARK   92  A    between atoms: _217  and  _218
REMARK   93  A    between atoms: _228  and  _230
REMARK   94  A    between atoms: _230  and  _231
REMARK   95  A    between atoms: _230  and  _233
REMARK   96  A    between atoms: _233  and  _234
REMARK   97  A    between atoms: _237  and  _239
REMARK   98  A    between atoms: _239  and  _240
REMARK   99  A    between atoms: _239  and  _242
REMARK  100  A    between atoms: _242  and  _243
REMARK  101  A    between atoms: _243  and  _244
REMARK  102  A    between atoms: _244  and  _245
REMARK  103  A    between atoms: _245  and  _246
REMARK  104  A    between atoms: _250  and  _252
REMARK  105  A    between atoms: _252  and  _253
REMARK  106  A    between atoms: _252  and  _255
REMARK  107  A    between atoms: _255  and  _256
REMARK  108  A    between atoms: _262  and  _264
REMARK  109  A    between atoms: _264  and  _265
REMARK  110  A    between atoms: _264  and  _267
REMARK  111  A    between atoms: _267  and  _268
REMARK  112  A    between atoms: _274  and  _276
REMARK  113  A    between atoms: _276  and  _277
REMARK  114  A    between atoms: _276  and  _279
REMARK  115  A    between atoms: _279  and  _280
REMARK  116  A    between atoms: _283  and  _285
REMARK  117  A    between atoms: _285  and  _286
REMARK  118  A    between atoms: _285  and  _288
REMARK  119  A    between atoms: _288  and  _289
REMARK  120  A    between atoms: _291  and  _293
REMARK  121  A    between atoms: _293  and  _294
REMARK  122  A    between atoms: _293  and  _296
REMARK  123  A    between atoms: _296  and  _297
REMARK  124  A    between atoms: _307  and  _309
REMARK  125  A    between atoms: _309  and  _310
REMARK  126  A    between atoms: _312  and  _314
REMARK  127  A    between atoms: _314  and  _315
REMARK  128  A    between atoms: _314  and  _317
REMARK  129  A    between atoms: _317  and  _318
REMARK  130  A    between atoms: _321  and  _323
REMARK  131  A    between atoms: _323  and  _324
REMARK  132  A    between atoms: _323  and  _326
REMARK  133  A    between atoms: _326  and  _327
REMARK  134  A    between atoms: _330  and  _332
REMARK  135  A    between atoms: _332  and  _333
REMARK  136  A    between atoms: _332  and  _335
REMARK  137  A    between atoms: _335  and  _336
REMARK  138  A    between atoms: _339  and  _341
REMARK  139  A    between atoms: _341  and  _342
REMARK  140  A    between atoms: _345  and  _347
REMARK  141  A    between atoms: _347  and  _348
REMARK  142  A    between atoms: _347  and  _350
REMARK  143  A    between atoms: _350  and  _351
REMARK  144  A    between atoms: _356  and  _357
REMARK  145  A    between atoms: _359  and  _361
REMARK  146  A    between atoms: _361  and  _362
REMARK  147  A    between atoms: _361  and  _364
REMARK  148  A    between atoms: _364  and  _365
REMARK  149  A    between atoms: _365  and  _366
REMARK  150  A    between atoms: _369  and  _371
REMARK  151  A    between atoms: _371  and  _372
REMARK  152  A    between atoms: _371  and  _374
REMARK  153  A    between atoms: _374  and  _375
REMARK  154  A    between atoms: _378  and  _380
REMARK  155  A    between atoms: _380  and  _381
REMARK  156  A    between atoms: _384  and  _386
REMARK  157  A    between atoms: _386  and  _387
REMARK  158  A    between atoms: _386  and  _389
REMARK  159  A    between atoms: _389  and  _390
REMARK  160  A    between atoms: _390  and  _391
REMARK  161  A    between atoms: _391  and  _392
REMARK  162  A    between atoms: _401  and  _403
REMARK  163  A    between atoms: _403  and  _404
REMARK  164  A    between atoms: _403  and  _406
REMARK  165  A    between atoms: _406  and  _407
REMARK  166  A    between atoms: _410  and  _412
REMARK  167  A    between atoms: _412  and  _413
REMARK  168  A    between atoms: _412  and  _415
REMARK  169  A    between atoms: _415  and  _416
REMARK  170  A    between atoms: _426  and  _428
REMARK  171  A    between atoms: _428  and  _429
REMARK  172  A    between atoms: _428  and  _431
REMARK  173  A    between atoms: _431  and  _432
REMARK  174  A    between atoms: _437  and  _438
REMARK  175  A    between atoms: _440  and  _442
REMARK  176  A    between atoms: _442  and  _443
REMARK  177  A    between atoms: _442  and  _445
REMARK  178  A    between atoms: _445  and  _446
REMARK  179  A    between atoms: _451  and  _452
REMARK  180  A    between atoms: _454  and  _456
REMARK  181  A    between atoms: _456  and  _457
REMARK  182  A    between atoms: _456  and  _459
REMARK  183  A    between atoms: _459  and  _460
REMARK  184  A    between atoms: _460  and  _461
REMARK  185  A    between atoms: _461  and  _462
REMARK  186  A    between atoms: _462  and  _463
REMARK  187  A    between atoms: _467  and  _469
REMARK  188  A    between atoms: _469  and  _470
REMARK  189  A    between atoms: _469  and  _472
REMARK  190  A    between atoms: _472  and  _473
REMARK  191  A    between atoms: _476  and  _478
REMARK  192  A    between atoms: _478  and  _479
REMARK  193  A    between atoms: _478  and  _481
REMARK  194  A    between atoms: _484  and  _486
REMARK  195  A    between atoms: _486  and  _487
REMARK  196  A    between atoms: _486  and  _489
REMARK  197  A    between atoms: _489  and  _490
REMARK  198  A    between atoms: _493  and  _495
REMARK  199  A    between atoms: _495  and  _496
REMARK  200  A    between atoms: _495  and  _498
REMARK  201  A    between atoms: _498  and  _499
REMARK  202  A    between atoms: _501  and  _503
REMARK  203  A    between atoms: _503  and  _504
REMARK  204  A    between atoms: _506  and  _508
REMARK  205  A    between atoms: _508  and  _509
REMARK  206  A    between atoms: _508  and  _511
REMARK  207  A    between atoms: _511  and  _512
REMARK  208  A    between atoms: _515  and  _517
REMARK  209  A    between atoms: _517  and  _518
REMARK  210  A    between atoms: _517  and  _520
REMARK  211  A    between atoms: _520  and  _521
REMARK  212  A    between atoms: _524  and  _526
REMARK  213  A    between atoms: _526  and  _527
REMARK  214  A    between atoms: _526  and  _529
REMARK  215  A    between atoms: _529  and  _530
REMARK  216  A    between atoms: _535  and  _537
REMARK  217  A    between atoms: _537  and  _538
REMARK  218  A    between atoms: _537  and  _540
REMARK  219  A    between atoms: _540  and  _541
REMARK  220  A    between atoms: _544  and  _546
REMARK  221  A    between atoms: _546  and  _547
REMARK  222  A    between atoms: _546  and  _549
REMARK  223  A    between atoms: _549  and  _550
REMARK  224  A    between atoms: _550  and  _551
REMARK  225  A    between atoms: _551  and  _552
REMARK  226  A    between atoms: _561  and  _563
REMARK  227  A    between atoms: _563  and  _564
REMARK  228  A    between atoms: _563  and  _566
REMARK  229  A    between atoms: _566  and  _567
REMARK  230  A    between atoms: _570  and  _572
REMARK  231  A    between atoms: _572  and  _573
REMARK  232  A    between atoms: _572  and  _575
REMARK  233  A    between atoms: _575  and  _576
REMARK  234  A    between atoms: _579  and  _581
REMARK  235  A    between atoms: _581  and  _582
REMARK  236  A    between atoms: _584  and  _586
REMARK  237  A    between atoms: _586  and  _587
REMARK  238  A    between atoms: _586  and  _589
REMARK  239  A    between atoms: _589  and  _590
REMARK  240  A    between atoms: _590  and  _591
REMARK  241  A    between atoms: _591  and  _592
REMARK  242  A    between atoms: _601  and  _603
REMARK  243  A    between atoms: _603  and  _604
REMARK  244  A    between atoms: _603  and  _606
REMARK  245  A    between atoms: _606  and  _607
REMARK  246  A    between atoms: _613  and  _615
REMARK  247  A    between atoms: _615  and  _616
REMARK  248  A    between atoms: _619  and  _621
REMARK  249  A    between atoms: _621  and  _622
REMARK  250  A    between atoms: _621  and  _624
REMARK  251  A    between atoms: _624  and  _625
REMARK  252  A    between atoms: _628  and  _630
REMARK  253  A    between atoms: _630  and  _631
REMARK  254  A    between atoms: _630  and  _633
REMARK  255  A    between atoms: _633  and  _634
REMARK  256  A    between atoms: _636  and  _638
REMARK  257  A    between atoms: _638  and  _639
REMARK  258  A    between atoms: _638  and  _641
REMARK  259  A    between atoms: _641  and  _642
REMARK  260  A    between atoms: _642  and  _643
REMARK  261  A    between atoms: _648  and  _650
REMARK  262  A    between atoms: _650  and  _651
REMARK  263  A    between atoms: _650  and  _653
REMARK  264  A    between atoms: _653  and  _654
REMARK  265  A    between atoms: _656  and  _658
REMARK  266  A    between atoms: _658  and  _659
REMARK  267  A    between atoms: _658  and  _661
REMARK  268  A    between atoms: _661  and  _662
REMARK  269  A    between atoms: _665  and  _667
REMARK  270  A    between atoms: _667  and  _668
REMARK  271  A    between atoms: _667  and  _670
REMARK  272  A    between atoms: _670  and  _671
REMARK  273  A    between atoms: _674  and  _676
REMARK  274  A    between atoms: _676  and  _677
REMARK  275  A    between atoms: _676  and  _679
REMARK  276  A    between atoms: _682  and  _684
REMARK  277  A    between atoms: _684  and  _685
REMARK  278  A    between atoms: _684  and  _687
REMARK  279  A    between atoms: _687  and  _688
REMARK  280  A    between atoms: _688  and  _689
REMARK  281  A    between atoms: _691  and  _693
REMARK  282  A    between atoms: _693  and  _694
REMARK  283  A    between atoms: _696  and  _698
REMARK  284  A    between atoms: _698  and  _699
REMARK  285  A    between atoms: _702  and  _704
REMARK  286  A    between atoms: _704  and  _705
REMARK  287  A    between atoms: _704  and  _707
REMARK  288  A    between atoms: _710  and  _712
REMARK  289  A    between atoms: _712  and  _713
REMARK  290  A    between atoms: _712  and  _715
REMARK  291  A    between atoms: _715  and  _716
REMARK  292  A    between atoms: _716  and  _717
REMARK  293  A    between atoms: _719  and  _721
REMARK  294  A    between atoms: _721  and  _722
REMARK  295  A    between atoms: _721  and  _724
REMARK  296  A    between atoms: _724  and  _725
REMARK  297  A    between atoms: _725  and  _726
REMARK                            x       y       z     vdW  Elec       q    Type
REMARK                         _______ _______ _______ _____ _____    ______ ____
ROOT
ATOM      1  O   HOH     1      -1.740  -7.169  28.447  0.00  0.00    +0.000 OA
ENDROOT
TORSDOF 0
REMARK  Name = ../refined-set-2016/2p4j/2p4j_pocket.pdb
REMARK  297 active torsions:
REMARK  status: ('A' for Active; 'I' for Inactive)
REMARK    1  A    between atoms: _1  and  _3
REMARK    2  A    between atoms: _3  and  _4
REMARK    3  A    between atoms: _6  and  _8
REMARK    4  A    between atoms: _8  and  _9
REMARK    5  A    between atoms: _8  and  _11
REMARK    6  A    between atoms: _11  and  _12
REMARK    7  A    between atoms: _12  and  _13
REMARK    8  A    between atoms: _13  and  _14
REMARK    9  A    between atoms: _14  and  _15
REMARK   10  A    between atoms: _19  and  _21
REMARK   11  A    between atoms: _21  and  _22
REMARK   12  A    between atoms: _21  and  _24
REMARK   13  A    between atoms: _24  and  _25
REMARK   14  A    between atoms: _27  and  _29
REMARK   15  A    between atoms: _29  and  _30
REMARK   16  A    between atoms: _32  and  _34
REMARK   17  A    between atoms: _34  and  _35
REMARK   18  A    between atoms: _34  and  _37
REMARK   19  A    between atoms: _37  and  _38
REMARK   20  A    between atoms: _38  and  _39
REMARK   21  A    between atoms: _44  and  _46
REMARK   22  A    between atoms: _46  and  _47
REMARK   23  A    between atoms: _49  and  _51
REMARK   24  A    between atoms: _51  and  _52
REMARK   25  A    between atoms: _51  and  _54
REMARK   26  A    between atoms: _54  and  _55
REMARK   27  A    between atoms: _60  and  _61
REMARK   28  A    between atoms: _63  and  _65
REMARK   29  A    between atoms: _65  and  _66
REMARK   30  A    between atoms: _65  and  _68
REMARK   31  A    between atoms: _68  and  _69
REMARK   32  A    between atoms: _72  and  _74
REMARK   33  A    between atoms: _74  and  _75
REMARK   34  A    between atoms: _74  and  _77
REMARK   35  A    between atoms: _80  and  _82
REMARK   36  A    between atoms: _82  and  _83
REMARK   37  A    between atoms: _82  and  _85
REMARK   38  A    between atoms: _85  and  _86
REMARK   39  A    between atoms: _89  and  _91
REMARK   40  A    between atoms: _91  and  _92
REMARK   41  A    between atoms: _91  and  _94
REMARK   42  A    between atoms: _94  and  _95
REMARK   43  A    between atoms: _98  and  _100
REMARK   44  A    between atoms: _100  and  _101
REMARK   45  A    between atoms: _103  and  _105
REMARK   46  A    between atoms: _105  and  _106
REMARK   47  A    between atoms: _105  and  _108
REMARK   48  A    between atoms: _108  and  _109
REMARK   49  A    between atoms: _111  and  _113
REMARK   50  A    between atoms: _113  and  _114
REMARK   51  A    between atoms: _113  and  _116
REMARK   52  A    between atoms: _116  and  _117
REMARK   53  A    between atoms: _119  and  _121
REMARK   54  A    between atoms: _121  and  _122
REMARK   55  A    between atoms: _121  and  _124
REMARK   56  A    between atoms: _124  and  _125
REMARK   57  A    between atoms: _130  and  _132
REMARK   58  A    between atoms: _132  and  _133
REMARK   59  A    between atoms: _132  and  _135
REMARK   60  A    between atoms: _135  and  _136
REMARK   61  A    between atoms: _141  and  _142
REMARK   62  A    between atoms: _144  and  _146
REMARK   63  A    between atoms: _146  and  _147
REMARK   64  A    between atoms: _146  and  _149
REMARK   65  A    between atoms: _153  and  _154
REMARK   66  A    between atoms: _159  and  _161
REMARK   67  A    between atoms: _161  and  _162
REMARK   68  A    between atoms: _161  and  _164
REMARK   69  A    between atoms: _164  and  _165
REMARK   70  A    between atoms: _170  and  _171
REMARK   71  A    between atoms: _173  and  _175
REMARK   72  A    between atoms: _175  and  _176
REMARK   73  A    between atoms: _175  and  _178
REMARK   74  A    between atoms: _178  and  _179
REMARK   75  A    between atoms: _182  and  _184
REMARK   76  A    between atoms: _184  and  _185
REMARK   77  A    between atoms: _184  and  _187
REMARK   78  A    between atoms: _187  and  _188
REMARK   79  A    between atoms: _188  and  _189
REMARK   80  A    between atoms: _194  and  _196
REMARK   81  A    between atoms: _196  and  _197
REMARK   82  A    between atoms: _199  and  _201
REMARK   83  A    between atoms: _201  and  _202
REMARK   84  A    between atoms: _201  and  _204
REMARK   85  A    between atoms: _204  and  _205
REMARK   86  A    between atoms: _205  and  _206
REMARK   87  A    between atoms: _206  and  _207
REMARK   88  A    between atoms: _207  and  _208
REMARK   89  A    between atoms: _212  and  _214
REMARK   90  A    between atoms: _214  and  _215
REMARK   91  A    between atoms: _214  and  _217
REMARK   92  A    between atoms: _217  and  _218
REMARK   93  A    between atoms: _228  and  _230
REMARK   94  A    between atoms: _230  and  _231
REMARK   95  A    between atoms: _230  and  _233
REMARK   96  A    between atoms: _233  and  _234
REMARK   97  A    between atoms: _237  and  _239
REMARK   98  A    between atoms: _239  and  _240
REMARK   99  A    between atoms: _239  and  _242
REMARK  100  A    between atoms: _242  and  _243
REMARK  101  A    between atoms: _243  and  _244
REMARK  102  A    between atoms: _244  and  _245
REMARK  103  A    between atoms: _245  and  _246
REMARK  104  A    between atoms: _250  and  _252
REMARK  105  A    between atoms: _252  and  _253
REMARK  106  A    between atoms: _252  and  _255
REMARK  107  A    between atoms: _255  and  _256
REMARK  108  A    between atoms: _262  and  _264
REMARK  109  A    between atoms: _264  and  _265
REMARK  110  A    between atoms: _264  and  _267
REMARK  111  A    between atoms: _267  and  _268
REMARK  112  A    between atoms: _274  and  _276
REMARK  113  A    between atoms: _276  and  _277
REMARK  114  A    between atoms: _276  and  _279
REMARK  115  A    between atoms: _279  and  _280
REMARK  116  A    between atoms: _283  and  _285
REMARK  117  A    between atoms: _285  and  _286
REMARK  118  A    between atoms: _285  and  _288
REMARK  119  A    between atoms: _288  and  _289
REMARK  120  A    between atoms: _291  and  _293
REMARK  121  A    between atoms: _293  and  _294
REMARK  122  A    between atoms: _293  and  _296
REMARK  123  A    between atoms: _296  and  _297
REMARK  124  A    between atoms: _307  and  _309
REMARK  125  A    between atoms: _309  and  _310
REMARK  126  A    between atoms: _312  and  _314
REMARK  127  A    between atoms: _314  and  _315
REMARK  128  A    between atoms: _314  and  _317
REMARK  129  A    between atoms: _317  and  _318
REMARK  130  A    between atoms: _321  and  _323
REMARK  131  A    between atoms: _323  and  _324
REMARK  132  A    between atoms: _323  and  _326
REMARK  133  A    between atoms: _326  and  _327
REMARK  134  A    between atoms: _330  and  _332
REMARK  135  A    between atoms: _332  and  _333
REMARK  136  A    between atoms: _332  and  _335
REMARK  137  A    between atoms: _335  and  _336
REMARK  138  A    between atoms: _339  and  _341
REMARK  139  A    between atoms: _341  and  _342
REMARK  140  A    between atoms: _345  and  _347
REMARK  141  A    between atoms: _347  and  _348
REMARK  142  A    between atoms: _347  and  _350
REMARK  143  A    between atoms: _350  and  _351
REMARK  144  A    between atoms: _356  and  _357
REMARK  145  A    between atoms: _359  and  _361
REMARK  146  A    between atoms: _361  and  _362
REMARK  147  A    between atoms: _361  and  _364
REMARK  148  A    between atoms: _364  and  _365
REMARK  149  A    between atoms: _365  and  _366
REMARK  150  A    between atoms: _369  and  _371
REMARK  151  A    between atoms: _371  and  _372
REMARK  152  A    between atoms: _371  and  _374
REMARK  153  A    between atoms: _374  and  _375
REMARK  154  A    between atoms: _378  and  _380
REMARK  155  A    between atoms: _380  and  _381
REMARK  156  A    between atoms: _384  and  _386
REMARK  157  A    between atoms: _386  and  _387
REMARK  158  A    between atoms: _386  and  _389
REMARK  159  A    between atoms: _389  and  _390
REMARK  160  A    between atoms: _390  and  _391
REMARK  161  A    between atoms: _391  and  _392
REMARK  162  A    between atoms: _401  and  _403
REMARK  163  A    between atoms: _403  and  _404
REMARK  164  A    between atoms: _403  and  _406
REMARK  165  A    between atoms: _406  and  _407
REMARK  166  A    between atoms: _410  and  _412
REMARK  167  A    between atoms: _412  and  _413
REMARK  168  A    between atoms: _412  and  _415
REMARK  169  A    between atoms: _415  and  _416
REMARK  170  A    between atoms: _426  and  _428
REMARK  171  A    between atoms: _428  and  _429
REMARK  172  A    between atoms: _428  and  _431
REMARK  173  A    between atoms: _431  and  _432
REMARK  174  A    between atoms: _437  and  _438
REMARK  175  A    between atoms: _440  and  _442
REMARK  176  A    between atoms: _442  and  _443
REMARK  177  A    between atoms: _442  and  _445
REMARK  178  A    between atoms: _445  and  _446
REMARK  179  A    between atoms: _451  and  _452
REMARK  180  A    between atoms: _454  and  _456
REMARK  181  A    between atoms: _456  and  _457
REMARK  182  A    between atoms: _456  and  _459
REMARK  183  A    between atoms: _459  and  _460
REMARK  184  A    between atoms: _460  and  _461
REMARK  185  A    between atoms: _461  and  _462
REMARK  186  A    between atoms: _462  and  _463
REMARK  187  A    between atoms: _467  and  _469
REMARK  188  A    between atoms: _469  and  _470
REMARK  189  A    between atoms: _469  and  _472
REMARK  190  A    between atoms: _472  and  _473
REMARK  191  A    between atoms: _476  and  _478
REMARK  192  A    between atoms: _478  and  _479
REMARK  193  A    between atoms: _478  and  _481
REMARK  194  A    between atoms: _484  and  _486
REMARK  195  A    between atoms: _486  and  _487
REMARK  196  A    between atoms: _486  and  _489
REMARK  197  A    between atoms: _489  and  _490
REMARK  198  A    between atoms: _493  and  _495
REMARK  199  A    between atoms: _495  and  _496
REMARK  200  A    between atoms: _495  and  _498
REMARK  201  A    between atoms: _498  and  _499
REMARK  202  A    between atoms: _501  and  _503
REMARK  203  A    between atoms: _503  and  _504
REMARK  204  A    between atoms: _506  and  _508
REMARK  205  A    between atoms: _508  and  _509
REMARK  206  A    between atoms: _508  and  _511
REMARK  207  A    between atoms: _511  and  _512
REMARK  208  A    between atoms: _515  and  _517
REMARK  209  A    between atoms: _517  and  _518
REMARK  210  A    between atoms: _517  and  _520
REMARK  211  A    between atoms: _520  and  _521
REMARK  212  A    between atoms: _524  and  _526
REMARK  213  A    between atoms: _526  and  _527
REMARK  214  A    between atoms: _526  and  _529
REMARK  215  A    between atoms: _529  and  _530
REMARK  216  A    between atoms: _535  and  _537
REMARK  217  A    between atoms: _537  and  _538
REMARK  218  A    between atoms: _537  and  _540
REMARK  219  A    between atoms: _540  and  _541
REMARK  220  A    between atoms: _544  and  _546
REMARK  221  A    between atoms: _546  and  _547
REMARK  222  A    between atoms: _546  and  _549
REMARK  223  A    between atoms: _549  and  _550
REMARK  224  A    between atoms: _550  and  _551
REMARK  225  A    between atoms: _551  and  _552
REMARK  226  A    between atoms: _561  and  _563
REMARK  227  A    between atoms: _563  and  _564
REMARK  228  A    between atoms: _563  and  _566
REMARK  229  A    between atoms: _566  and  _567
REMARK  230  A    between atoms: _570  and  _572
REMARK  231  A    between atoms: _572  and  _573
REMARK  232  A    between atoms: _572  and  _575
REMARK  233  A    between atoms: _575  and  _576
REMARK  234  A    between atoms: _579  and  _581
REMARK  235  A    between atoms: _581  and  _582
REMARK  236  A    between atoms: _584  and  _586
REMARK  237  A    between atoms: _586  and  _587
REMARK  238  A    between atoms: _586  and  _589
REMARK  239  A    between atoms: _589  and  _590
REMARK  240  A    between atoms: _590  and  _591
REMARK  241  A    between atoms: _591  and  _592
REMARK  242  A    between atoms: _601  and  _603
REMARK  243  A    between atoms: _603  and  _604
REMARK  244  A    between atoms: _603  and  _606
REMARK  245  A    between atoms: _606  and  _607
REMARK  246  A    between atoms: _613  and  _615
REMARK  247  A    between atoms: _615  and  _616
REMARK  248  A    between atoms: _619  and  _621
REMARK  249  A    between atoms: _621  and  _622
REMARK  250  A    between atoms: _621  and  _624
REMARK  251  A    between atoms: _624  and  _625
REMARK  252  A    between atoms: _628  and  _630
REMARK  253  A    between atoms: _630  and  _631
REMARK  254  A    between atoms: _630  and  _633
REMARK  255  A    between atoms: _633  and  _634
REMARK  256  A    between atoms: _636  and  _638
REMARK  257  A    between atoms: _638  and  _639
REMARK  258  A    between atoms: _638  and  _641
REMARK  259  A    between atoms: _641  and  _642
REMARK  260  A    between atoms: _642  and  _643
REMARK  261  A    between atoms: _648  and  _650
REMARK  262  A    between atoms: _650  and  _651
REMARK  263  A    between atoms: _650  and  _653
REMARK  264  A    between atoms: _653  and  _654
REMARK  265  A    between atoms: _656  and  _658
REMARK  266  A    between atoms: _658  and  _659
REMARK  267  A    between atoms: _658  and  _661
REMARK  268  A    between atoms: _661  and  _662
REMARK  269  A    between atoms: _665  and  _667
REMARK  270  A    between atoms: _667  and  _668
REMARK  271  A    between atoms: _667  and  _670
REMARK  272  A    between atoms: _670  and  _671
REMARK  273  A    between atoms: _674  and  _676
REMARK  274  A    between atoms: _676  and  _677
REMARK  275  A    between atoms: _676  and  _679
REMARK  276  A    between atoms: _682  and  _684
REMARK  277  A    between atoms: _684  and  _685
REMARK  278  A    between atoms: _684  and  _687
REMARK  279  A    between atoms: _687  and  _688
REMARK  280  A    between atoms: _688  and  _689
REMARK  281  A    between atoms: _691  and  _693
REMARK  282  A    between atoms: _693  and  _694
REMARK  283  A    between atoms: _696  and  _698
REMARK  284  A    between atoms: _698  and  _699
REMARK  285  A    between atoms: _702  and  _704
REMARK  286  A    between atoms: _704  and  _705
REMARK  287  A    between atoms: _704  and  _707
REMARK  288  A    between atoms: _710  and  _712
REMARK  289  A    between atoms: _712  and  _713
REMARK  290  A    between atoms: _712  and  _715
REMARK  291  A    between atoms: _715  and  _716
REMARK  292  A    between atoms: _716  and  _717
REMARK  293  A    between atoms: _719  and  _721
REMARK  294  A    between atoms: _721  and  _722
REMARK  295  A    between atoms: _721  and  _724
REMARK  296  A    between atoms: _724  and  _725
REMARK  297  A    between atoms: _725  and  _726
REMARK                            x       y       z     vdW  Elec       q    Type
REMARK                         _______ _______ _______ _____ _____    ______ ____
ROOT
ATOM      1  O   HOH     1       2.662   4.507  20.714  0.00  0.00    +0.000 OA
ENDROOT
TORSDOF 0
