REMARK  Name = ../refined-set-2016/4bqg/4bqg_pocket.pdb
REMARK  221 active torsions:
REMARK  status: ('A' for Active; 'I' for Inactive)
REMARK    1  A    between atoms: _1  and  _3
REMARK    2  A    between atoms: _3  and  _4
REMARK    3  A    between atoms: _3  and  _6
REMARK    4  A    between atoms: _6  and  _7
REMARK    5  A    between atoms: _13  and  _15
REMARK    6  A    between atoms: _15  and  _16
REMARK    7  A    between atoms: _15  and  _18
REMARK    8  A    between atoms: _18  and  _19
REMARK    9  A    between atoms: _22  and  _24
REMARK   10  A    between atoms: _24  and  _25
REMARK   11  A    between atoms: _24  and  _27
REMARK   12  A    between atoms: _27  and  _28
REMARK   13  A    between atoms: _28  and  _29
REMARK   14  A    between atoms: _31  and  _33
REMARK   15  A    between atoms: _33  and  _34
REMARK   16  A    between atoms: _33  and  _36
REMARK   17  A    between atoms: _36  and  _37
REMARK   18  A    between atoms: _43  and  _45
REMARK   19  A    between atoms: _45  and  _46
REMARK   20  A    between atoms: _45  and  _48
REMARK   21  A    between atoms: _48  and  _49
REMARK   22  A    between atoms: _52  and  _54
REMARK   23  A    between atoms: _54  and  _55
REMARK   24  A    between atoms: _54  and  _57
REMARK   25  A    between atoms: _57  and  _58
REMARK   26  A    between atoms: _58  and  _59
REMARK   27  A    between atoms: _62  and  _64
REMARK   28  A    between atoms: _64  and  _65
REMARK   29  A    between atoms: _64  and  _67
REMARK   30  A    between atoms: _67  and  _68
REMARK   31  A    between atoms: _71  and  _73
REMARK   32  A    between atoms: _73  and  _74
REMARK   33  A    between atoms: _73  and  _76
REMARK   34  A    between atoms: _76  and  _77
REMARK   35  A    between atoms: _80  and  _82
REMARK   36  A    between atoms: _82  and  _83
REMARK   37  A    between atoms: _82  and  _85
REMARK   38  A    between atoms: _85  and  _86
REMARK   39  A    between atoms: _88  and  _90
REMARK   40  A    between atoms: _90  and  _91
REMARK   41  A    between atoms: _90  and  _93
REMARK   42  A    between atoms: _93  and  _94
REMARK   43  A    between atoms: _99  and  _101
REMARK   44  A    between atoms: _101  and  _102
REMARK   45  A    between atoms: _101  and  _104
REMARK   46  A    between atoms: _104  and  _105
REMARK   47  A    between atoms: _107  and  _109
REMARK   48  A    between atoms: _109  and  _110
REMARK   49  A    between atoms: _109  and  _112
REMARK   50  A    between atoms: _112  and  _113
REMARK   51  A    between atoms: _115  and  _117
REMARK   52  A    between atoms: _117  and  _118
REMARK   53  A    between atoms: _117  and  _120
REMARK   54  A    between atoms: _120  and  _121
REMARK   55  A    between atoms: _124  and  _126
REMARK   56  A    between atoms: _126  and  _127
REMARK   57  A    between atoms: _130  and  _132
REMARK   58  A    between atoms: _132  and  _133
REMARK   59  A    between atoms: _132  and  _135
REMARK   60  A    between atoms: _135  and  _136
REMARK   61  A    between atoms: _139  and  _141
REMARK   62  A    between atoms: _141  and  _142
REMARK   63  A    between atoms: _141  and  _144
REMARK   64  A    between atoms: _144  and  _145
REMARK   65  A    between atoms: _145  and  _146
REMARK   66  A    between atoms: _146  and  _147
REMARK   67  A    between atoms: _147  and  _148
REMARK   68  A    between atoms: _152  and  _154
REMARK   69  A    between atoms: _154  and  _155
REMARK   70  A    between atoms: _154  and  _157
REMARK   71  A    between atoms: _157  and  _158
REMARK   72  A    between atoms: _161  and  _163
REMARK   73  A    between atoms: _163  and  _164
REMARK   74  A    between atoms: _163  and  _166
REMARK   75  A    between atoms: _169  and  _171
REMARK   76  A    between atoms: _171  and  _172
REMARK   77  A    between atoms: _171  and  _174
REMARK   78  A    between atoms: _174  and  _175
REMARK   79  A    between atoms: _178  and  _180
REMARK   80  A    between atoms: _180  and  _181
REMARK   81  A    between atoms: _180  and  _183
REMARK   82  A    between atoms: _183  and  _184
REMARK   83  A    between atoms: _187  and  _189
REMARK   84  A    between atoms: _189  and  _190
REMARK   85  A    between atoms: _192  and  _194
REMARK   86  A    between atoms: _194  and  _195
REMARK   87  A    between atoms: _194  and  _197
REMARK   88  A    between atoms: _197  and  _198
REMARK   89  A    between atoms: _201  and  _203
REMARK   90  A    between atoms: _203  and  _204
REMARK   91  A    between atoms: _206  and  _208
REMARK   92  A    between atoms: _208  and  _209
REMARK   93  A    between atoms: _208  and  _211
REMARK   94  A    between atoms: _211  and  _212
REMARK   95  A    between atoms: _212  and  _213
REMARK   96  A    between atoms: _215  and  _217
REMARK   97  A    between atoms: _217  and  _218
REMARK   98  A    between atoms: _217  and  _220
REMARK   99  A    between atoms: _220  and  _221
REMARK  100  A    between atoms: _224  and  _226
REMARK  101  A    between atoms: _226  and  _227
REMARK  102  A    between atoms: _226  and  _229
REMARK  103  A    between atoms: _229  and  _230
REMARK  104  A    between atoms: _233  and  _235
REMARK  105  A    between atoms: _235  and  _236
REMARK  106  A    between atoms: _235  and  _238
REMARK  107  A    between atoms: _238  and  _239
REMARK  108  A    between atoms: _242  and  _244
REMARK  109  A    between atoms: _244  and  _245
REMARK  110  A    between atoms: _244  and  _247
REMARK  111  A    between atoms: _247  and  _248
REMARK  112  A    between atoms: _253  and  _255
REMARK  113  A    between atoms: _255  and  _256
REMARK  114  A    between atoms: _255  and  _258
REMARK  115  A    between atoms: _258  and  _259
REMARK  116  A    between atoms: _262  and  _264
REMARK  117  A    between atoms: _264  and  _265
REMARK  118  A    between atoms: _267  and  _269
REMARK  119  A    between atoms: _269  and  _270
REMARK  120  A    between atoms: _269  and  _272
REMARK  121  A    between atoms: _272  and  _273
REMARK  122  A    between atoms: _276  and  _278
REMARK  123  A    between atoms: _278  and  _279
REMARK  124  A    between atoms: _282  and  _284
REMARK  125  A    between atoms: _284  and  _285
REMARK  126  A    between atoms: _287  and  _289
REMARK  127  A    between atoms: _289  and  _290
REMARK  128  A    between atoms: _289  and  _292
REMARK  129  A    between atoms: _295  and  _297
REMARK  130  A    between atoms: _297  and  _298
REMARK  131  A    between atoms: _300  and  _302
REMARK  132  A    between atoms: _302  and  _303
REMARK  133  A    between atoms: _302  and  _305
REMARK  134  A    between atoms: _305  and  _306
REMARK  135  A    between atoms: _312  and  _314
REMARK  136  A    between atoms: _314  and  _315
REMARK  137  A    between atoms: _314  and  _317
REMARK  138  A    between atoms: _317  and  _318
REMARK  139  A    between atoms: _323  and  _324
REMARK  140  A    between atoms: _326  and  _328
REMARK  141  A    between atoms: _328  and  _329
REMARK  142  A    between atoms: _328  and  _331
REMARK  143  A    between atoms: _331  and  _332
REMARK  144  A    between atoms: _334  and  _336
REMARK  145  A    between atoms: _336  and  _337
REMARK  146  A    between atoms: _340  and  _342
REMARK  147  A    between atoms: _342  and  _343
REMARK  148  A    between atoms: _342  and  _345
REMARK  149  A    between atoms: _345  and  _346
REMARK  150  A    between atoms: _351  and  _352
REMARK  151  A    between atoms: _354  and  _356
REMARK  152  A    between atoms: _356  and  _357
REMARK  153  A    between atoms: _356  and  _359
REMARK  154  A    between atoms: _362  and  _364
REMARK  155  A    between atoms: _364  and  _365
REMARK  156  A    between atoms: _364  and  _367
REMARK  157  A    between atoms: _367  and  _368
REMARK  158  A    between atoms: _371  and  _373
REMARK  159  A    between atoms: _373  and  _374
REMARK  160  A    between atoms: _373  and  _376
REMARK  161  A    between atoms: _379  and  _381
REMARK  162  A    between atoms: _381  and  _382
REMARK  163  A    between atoms: _381  and  _384
REMARK  164  A    between atoms: _384  and  _385
REMARK  165  A    between atoms: _388  and  _390
REMARK  166  A    between atoms: _390  and  _391
REMARK  167  A    between atoms: _390  and  _393
REMARK  168  A    between atoms: _393  and  _394
REMARK  169  A    between atoms: _397  and  _399
REMARK  170  A    between atoms: _399  and  _400
REMARK  171  A    between atoms: _399  and  _402
REMARK  172  A    between atoms: _402  and  _403
REMARK  173  A    between atoms: _403  and  _404
REMARK  174  A    between atoms: _404  and  _405
REMARK  175  A    between atoms: _405  and  _406
REMARK  176  A    between atoms: _410  and  _412
REMARK  177  A    between atoms: _412  and  _413
REMARK  178  A    between atoms: _416  and  _418
REMARK  179  A    between atoms: _418  and  _419
REMARK  180  A    between atoms: _418  and  _421
REMARK  181  A    between atoms: _421  and  _422
REMARK  182  A    between atoms: _432  and  _434
REMARK  183  A    between atoms: _434  and  _435
REMARK  184  A    between atoms: _434  and  _437
REMARK  185  A    between atoms: _437  and  _438
REMARK  186  A    between atoms: _438  and  _439
REMARK  187  A    between atoms: _442  and  _444
REMARK  188  A    between atoms: _444  and  _445
REMARK  189  A    between atoms: _444  and  _447
REMARK  190  A    between atoms: _447  and  _448
REMARK  191  A    between atoms: _450  and  _452
REMARK  192  A    between atoms: _452  and  _453
REMARK  193  A    between atoms: _452  and  _455
REMARK  194  A    between atoms: _455  and  _456
REMARK  195  A    between atoms: _462  and  _464
REMARK  196  A    between atoms: _464  and  _465
REMARK  197  A    between atoms: _464  and  _467
REMARK  198  A    between atoms: _467  and  _468
REMARK  199  A    between atoms: _471  and  _473
REMARK  200  A    between atoms: _473  and  _474
REMARK  201  A    between atoms: _473  and  _476
REMARK  202  A    between atoms: _479  and  _481
REMARK  203  A    between atoms: _481  and  _482
REMARK  204  A    between atoms: _484  and  _486
REMARK  205  A    between atoms: _486  and  _487
REMARK  206  A    between atoms: _486  and  _489
REMARK  207  A    between atoms: _489  and  _490
REMARK  208  A    between atoms: _493  and  _495
REMARK  209  A    between atoms: _495  and  _496
REMARK  210  A    between atoms: _495  and  _498
REMARK  211  A    between atoms: _498  and  _499
REMARK  212  A    between atoms: _499  and  _500
REMARK  213  A    between atoms: _500  and  _501
REMARK  214  A    between atoms: _501  and  _502
REMARK  215  A    between atoms: _506  and  _508
REMARK  216  A    between atoms: _508  and  _509
REMARK  217  A    between atoms: _508  and  _511
REMARK  218  A    between atoms: _514  and  _516
REMARK  219  A    between atoms: _516  and  _517
REMARK  220  A    between atoms: _516  and  _519
REMARK  221  A    between atoms: _519  and  _520
REMARK                            x       y       z     vdW  Elec       q    Type
REMARK                         _______ _______ _______ _____ _____    ______ ____
ROOT
ATOM      1  CB  PHE A   1      15.602  17.250  23.922  0.00  0.00    +0.051 C 
ENDROOT
BRANCH   1   2
ATOM      2  CG  PHE A   1      14.187  17.718  23.743  0.00  0.00    -0.020 A 
ATOM      3  CD2 PHE A   1      13.111  16.882  24.070  0.00  0.00    -0.004 A 
ATOM      4  CE2 PHE A   1      11.799  17.317  23.899  0.00  0.00    -0.000 A 
ATOM      5  CZ  PHE A   1      11.556  18.585  23.377  0.00  0.00    -0.000 A 
ATOM      6  CE1 PHE A   1      12.607  19.415  23.060  0.00  0.00    -0.000 A 
ATOM      7  CD1 PHE A   1      13.925  18.976  23.240  0.00  0.00    -0.004 A 
ENDBRANCH   1   2
BRANCH   1   8
ATOM      8  CA  PHE A   1      16.023  17.085  25.387  0.00  0.00    +0.137 C 
BRANCH   8   9
ATOM      9  N   PHE A   1      16.406  18.358  25.973  0.00  0.00    -0.239 NA
ATOM     10  H   PHE A   1      16.375  19.223  25.396  0.00  0.00    +0.142 HD
ENDBRANCH   8   9
BRANCH   8  11
ATOM     11  C   PHE A   1      17.258  16.186  25.386  0.00  0.00    +0.224 C 
ATOM     12  O   PHE A   1      18.383  16.667  25.276  0.00  0.00    -0.287 OA
ENDBRANCH   8  11
ENDBRANCH   1   8
TORSDOF 4
REMARK  Name = ../refined-set-2016/4bqg/4bqg_pocket.pdb
REMARK  221 active torsions:
REMARK  status: ('A' for Active; 'I' for Inactive)
REMARK    1  A    between atoms: _1  and  _3
REMARK    2  A    between atoms: _3  and  _4
REMARK    3  A    between atoms: _3  and  _6
REMARK    4  A    between atoms: _6  and  _7
REMARK    5  A    between atoms: _13  and  _15
REMARK    6  A    between atoms: _15  and  _16
REMARK    7  A    between atoms: _15  and  _18
REMARK    8  A    between atoms: _18  and  _19
REMARK    9  A    between atoms: _22  and  _24
REMARK   10  A    between atoms: _24  and  _25
REMARK   11  A    between atoms: _24  and  _27
REMARK   12  A    between atoms: _27  and  _28
REMARK   13  A    between atoms: _28  and  _29
REMARK   14  A    between atoms: _31  and  _33
REMARK   15  A    between atoms: _33  and  _34
REMARK   16  A    between atoms: _33  and  _36
REMARK   17  A    between atoms: _36  and  _37
REMARK   18  A    between atoms: _43  and  _45
REMARK   19  A    between atoms: _45  and  _46
REMARK   20  A    between atoms: _45  and  _48
REMARK   21  A    between atoms: _48  and  _49
REMARK   22  A    between atoms: _52  and  _54
REMARK   23  A    between atoms: _54  and  _55
REMARK   24  A    between atoms: _54  and  _57
REMARK   25  A    between atoms: _57  and  _58
REMARK   26  A    between atoms: _58  and  _59
REMARK   27  A    between atoms: _62  and  _64
REMARK   28  A    between atoms: _64  and  _65
REMARK   29  A    between atoms: _64  and  _67
REMARK   30  A    between atoms: _67  and  _68
REMARK   31  A    between atoms: _71  and  _73
REMARK   32  A    between atoms: _73  and  _74
REMARK   33  A    between atoms: _73  and  _76
REMARK   34  A    between atoms: _76  and  _77
REMARK   35  A    between atoms: _80  and  _82
REMARK   36  A    between atoms: _82  and  _83
REMARK   37  A    between atoms: _82  and  _85
REMARK   38  A    between atoms: _85  and  _86
REMARK   39  A    between atoms: _88  and  _90
REMARK   40  A    between atoms: _90  and  _91
REMARK   41  A    between atoms: _90  and  _93
REMARK   42  A    between atoms: _93  and  _94
REMARK   43  A    between atoms: _99  and  _101
REMARK   44  A    between atoms: _101  and  _102
REMARK   45  A    between atoms: _101  and  _104
REMARK   46  A    between atoms: _104  and  _105
REMARK   47  A    between atoms: _107  and  _109
REMARK   48  A    between atoms: _109  and  _110
REMARK   49  A    between atoms: _109  and  _112
REMARK   50  A    between atoms: _112  and  _113
REMARK   51  A    between atoms: _115  and  _117
REMARK   52  A    between atoms: _117  and  _118
REMARK   53  A    between atoms: _117  and  _120
REMARK   54  A    between atoms: _120  and  _121
REMARK   55  A    between atoms: _124  and  _126
REMARK   56  A    between atoms: _126  and  _127
REMARK   57  A    between atoms: _130  and  _132
REMARK   58  A    between atoms: _132  and  _133
REMARK   59  A    between atoms: _132  and  _135
REMARK   60  A    between atoms: _135  and  _136
REMARK   61  A    between atoms: _139  and  _141
REMARK   62  A    between atoms: _141  and  _142
REMARK   63  A    between atoms: _141  and  _144
REMARK   64  A    between atoms: _144  and  _145
REMARK   65  A    between atoms: _145  and  _146
REMARK   66  A    between atoms: _146  and  _147
REMARK   67  A    between atoms: _147  and  _148
REMARK   68  A    between atoms: _152  and  _154
REMARK   69  A    between atoms: _154  and  _155
REMARK   70  A    between atoms: _154  and  _157
REMARK   71  A    between atoms: _157  and  _158
REMARK   72  A    between atoms: _161  and  _163
REMARK   73  A    between atoms: _163  and  _164
REMARK   74  A    between atoms: _163  and  _166
REMARK   75  A    between atoms: _169  and  _171
REMARK   76  A    between atoms: _171  and  _172
REMARK   77  A    between atoms: _171  and  _174
REMARK   78  A    between atoms: _174  and  _175
REMARK   79  A    between atoms: _178  and  _180
REMARK   80  A    between atoms: _180  and  _181
REMARK   81  A    between atoms: _180  and  _183
REMARK   82  A    between atoms: _183  and  _184
REMARK   83  A    between atoms: _187  and  _189
REMARK   84  A    between atoms: _189  and  _190
REMARK   85  A    between atoms: _192  and  _194
REMARK   86  A    between atoms: _194  and  _195
REMARK   87  A    between atoms: _194  and  _197
REMARK   88  A    between atoms: _197  and  _198
REMARK   89  A    between atoms: _201  and  _203
REMARK   90  A    between atoms: _203  and  _204
REMARK   91  A    between atoms: _206  and  _208
REMARK   92  A    between atoms: _208  and  _209
REMARK   93  A    between atoms: _208  and  _211
REMARK   94  A    between atoms: _211  and  _212
REMARK   95  A    between atoms: _212  and  _213
REMARK   96  A    between atoms: _215  and  _217
REMARK   97  A    between atoms: _217  and  _218
REMARK   98  A    between atoms: _217  and  _220
REMARK   99  A    between atoms: _220  and  _221
REMARK  100  A    between atoms: _224  and  _226
REMARK  101  A    between atoms: _226  and  _227
REMARK  102  A    between atoms: _226  and  _229
REMARK  103  A    between atoms: _229  and  _230
REMARK  104  A    between atoms: _233  and  _235
REMARK  105  A    between atoms: _235  and  _236
REMARK  106  A    between atoms: _235  and  _238
REMARK  107  A    between atoms: _238  and  _239
REMARK  108  A    between atoms: _242  and  _244
REMARK  109  A    between atoms: _244  and  _245
REMARK  110  A    between atoms: _244  and  _247
REMARK  111  A    between atoms: _247  and  _248
REMARK  112  A    between atoms: _253  and  _255
REMARK  113  A    between atoms: _255  and  _256
REMARK  114  A    between atoms: _255  and  _258
REMARK  115  A    between atoms: _258  and  _259
REMARK  116  A    between atoms: _262  and  _264
REMARK  117  A    between atoms: _264  and  _265
REMARK  118  A    between atoms: _267  and  _269
REMARK  119  A    between atoms: _269  and  _270
REMARK  120  A    between atoms: _269  and  _272
REMARK  121  A    between atoms: _272  and  _273
REMARK  122  A    between atoms: _276  and  _278
REMARK  123  A    between atoms: _278  and  _279
REMARK  124  A    between atoms: _282  and  _284
REMARK  125  A    between atoms: _284  and  _285
REMARK  126  A    between atoms: _287  and  _289
REMARK  127  A    between atoms: _289  and  _290
REMARK  128  A    between atoms: _289  and  _292
REMARK  129  A    between atoms: _295  and  _297
REMARK  130  A    between atoms: _297  and  _298
REMARK  131  A    between atoms: _300  and  _302
REMARK  132  A    between atoms: _302  and  _303
REMARK  133  A    between atoms: _302  and  _305
REMARK  134  A    between atoms: _305  and  _306
REMARK  135  A    between atoms: _312  and  _314
REMARK  136  A    between atoms: _314  and  _315
REMARK  137  A    between atoms: _314  and  _317
REMARK  138  A    between atoms: _317  and  _318
REMARK  139  A    between atoms: _323  and  _324
REMARK  140  A    between atoms: _326  and  _328
REMARK  141  A    between atoms: _328  and  _329
REMARK  142  A    between atoms: _328  and  _331
REMARK  143  A    between atoms: _331  and  _332
REMARK  144  A    between atoms: _334  and  _336
REMARK  145  A    between atoms: _336  and  _337
REMARK  146  A    between atoms: _340  and  _342
REMARK  147  A    between atoms: _342  and  _343
REMARK  148  A    between atoms: _342  and  _345
REMARK  149  A    between atoms: _345  and  _346
REMARK  150  A    between atoms: _351  and  _352
REMARK  151  A    between atoms: _354  and  _356
REMARK  152  A    between atoms: _356  and  _357
REMARK  153  A    between atoms: _356  and  _359
REMARK  154  A    between atoms: _362  and  _364
REMARK  155  A    between atoms: _364  and  _365
REMARK  156  A    between atoms: _364  and  _367
REMARK  157  A    between atoms: _367  and  _368
REMARK  158  A    between atoms: _371  and  _373
REMARK  159  A    between atoms: _373  and  _374
REMARK  160  A    between atoms: _373  and  _376
REMARK  161  A    between atoms: _379  and  _381
REMARK  162  A    between atoms: _381  and  _382
REMARK  163  A    between atoms: _381  and  _384
REMARK  164  A    between atoms: _384  and  _385
REMARK  165  A    between atoms: _388  and  _390
REMARK  166  A    between atoms: _390  and  _391
REMARK  167  A    between atoms: _390  and  _393
REMARK  168  A    between atoms: _393  and  _394
REMARK  169  A    between atoms: _397  and  _399
REMARK  170  A    between atoms: _399  and  _400
REMARK  171  A    between atoms: _399  and  _402
REMARK  172  A    between atoms: _402  and  _403
REMARK  173  A    between atoms: _403  and  _404
REMARK  174  A    between atoms: _404  and  _405
REMARK  175  A    between atoms: _405  and  _406
REMARK  176  A    between atoms: _410  and  _412
REMARK  177  A    between atoms: _412  and  _413
REMARK  178  A    between atoms: _416  and  _418
REMARK  179  A    between atoms: _418  and  _419
REMARK  180  A    between atoms: _418  and  _421
REMARK  181  A    between atoms: _421  and  _422
REMARK  182  A    between atoms: _432  and  _434
REMARK  183  A    between atoms: _434  and  _435
REMARK  184  A    between atoms: _434  and  _437
REMARK  185  A    between atoms: _437  and  _438
REMARK  186  A    between atoms: _438  and  _439
REMARK  187  A    between atoms: _442  and  _444
REMARK  188  A    between atoms: _444  and  _445
REMARK  189  A    between atoms: _444  and  _447
REMARK  190  A    between atoms: _447  and  _448
REMARK  191  A    between atoms: _450  and  _452
REMARK  192  A    between atoms: _452  and  _453
REMARK  193  A    between atoms: _452  and  _455
REMARK  194  A    between atoms: _455  and  _456
REMARK  195  A    between atoms: _462  and  _464
REMARK  196  A    between atoms: _464  and  _465
REMARK  197  A    between atoms: _464  and  _467
REMARK  198  A    between atoms: _467  and  _468
REMARK  199  A    between atoms: _471  and  _473
REMARK  200  A    between atoms: _473  and  _474
REMARK  201  A    between atoms: _473  and  _476
REMARK  202  A    between atoms: _479  and  _481
REMARK  203  A    between atoms: _481  and  _482
REMARK  204  A    between atoms: _484  and  _486
REMARK  205  A    between atoms: _486  and  _487
REMARK  206  A    between atoms: _486  and  _489
REMARK  207  A    between atoms: _489  and  _490
REMARK  208  A    between atoms: _493  and  _495
REMARK  209  A    between atoms: _495  and  _496
REMARK  210  A    between atoms: _495  and  _498
REMARK  211  A    between atoms: _498  and  _499
REMARK  212  A    between atoms: _499  and  _500
REMARK  213  A    between atoms: _500  and  _501
REMARK  214  A    between atoms: _501  and  _502
REMARK  215  A    between atoms: _506  and  _508
REMARK  216  A    between atoms: _508  and  _509
REMARK  217  A    between atoms: _508  and  _511
REMARK  218  A    between atoms: _514  and  _516
REMARK  219  A    between atoms: _516  and  _517
REMARK  220  A    between atoms: _516  and  _519
REMARK  221  A    between atoms: _519  and  _520
REMARK                            x       y       z     vdW  Elec       q    Type
REMARK                         _______ _______ _______ _____ _____    ______ ____
ROOT
ATOM      1  CA  ILE A   1      15.527  13.354  20.489  0.00  0.00    +0.133 C 
ENDROOT
BRANCH   1   2
ATOM      2  N   ILE A   1      16.862  12.754  20.688  0.00  0.00    -0.239 NA
ATOM      3  H   ILE A   1      17.235  12.668  21.655  0.00  0.00    +0.142 HD
ENDBRANCH   1   2
BRANCH   1   4
ATOM      4  CB  ILE A   1      14.745  13.413  21.822  0.00  0.00    +0.023 C 
ATOM      5  CG2 ILE A   1      13.403  14.125  21.668  0.00  0.00    +0.002 C 
BRANCH   4   6
ATOM      6  CG1 ILE A   1      14.690  12.022  22.486  0.00  0.00    +0.002 C 
ATOM      7  CD1 ILE A   1      13.673  11.054  21.944  0.00  0.00    +0.000 C 
ENDBRANCH   4   6
ENDBRANCH   1   4
BRANCH   1   8
ATOM      8  C   ILE A   1      15.676  14.740  19.871  0.00  0.00    +0.224 C 
ATOM      9  O   ILE A   1      14.960  15.085  18.925  0.00  0.00    -0.287 OA
ENDBRANCH   1   8
TORSDOF 4
REMARK  Name = ../refined-set-2016/4bqg/4bqg_pocket.pdb
REMARK  221 active torsions:
REMARK  status: ('A' for Active; 'I' for Inactive)
REMARK    1  A    between atoms: _1  and  _3
REMARK    2  A    between atoms: _3  and  _4
REMARK    3  A    between atoms: _3  and  _6
REMARK    4  A    between atoms: _6  and  _7
REMARK    5  A    between atoms: _13  and  _15
REMARK    6  A    between atoms: _15  and  _16
REMARK    7  A    between atoms: _15  and  _18
REMARK    8  A    between atoms: _18  and  _19
REMARK    9  A    between atoms: _22  and  _24
REMARK   10  A    between atoms: _24  and  _25
REMARK   11  A    between atoms: _24  and  _27
REMARK   12  A    between atoms: _27  and  _28
REMARK   13  A    between atoms: _28  and  _29
REMARK   14  A    between atoms: _31  and  _33
REMARK   15  A    between atoms: _33  and  _34
REMARK   16  A    between atoms: _33  and  _36
REMARK   17  A    between atoms: _36  and  _37
REMARK   18  A    between atoms: _43  and  _45
REMARK   19  A    between atoms: _45  and  _46
REMARK   20  A    between atoms: _45  and  _48
REMARK   21  A    between atoms: _48  and  _49
REMARK   22  A    between atoms: _52  and  _54
REMARK   23  A    between atoms: _54  and  _55
REMARK   24  A    between atoms: _54  and  _57
REMARK   25  A    between atoms: _57  and  _58
REMARK   26  A    between atoms: _58  and  _59
REMARK   27  A    between atoms: _62  and  _64
REMARK   28  A    between atoms: _64  and  _65
REMARK   29  A    between atoms: _64  and  _67
REMARK   30  A    between atoms: _67  and  _68
REMARK   31  A    between atoms: _71  and  _73
REMARK   32  A    between atoms: _73  and  _74
REMARK   33  A    between atoms: _73  and  _76
REMARK   34  A    between atoms: _76  and  _77
REMARK   35  A    between atoms: _80  and  _82
REMARK   36  A    between atoms: _82  and  _83
REMARK   37  A    between atoms: _82  and  _85
REMARK   38  A    between atoms: _85  and  _86
REMARK   39  A    between atoms: _88  and  _90
REMARK   40  A    between atoms: _90  and  _91
REMARK   41  A    between atoms: _90  and  _93
REMARK   42  A    between atoms: _93  and  _94
REMARK   43  A    between atoms: _99  and  _101
REMARK   44  A    between atoms: _101  and  _102
REMARK   45  A    between atoms: _101  and  _104
REMARK   46  A    between atoms: _104  and  _105
REMARK   47  A    between atoms: _107  and  _109
REMARK   48  A    between atoms: _109  and  _110
REMARK   49  A    between atoms: _109  and  _112
REMARK   50  A    between atoms: _112  and  _113
REMARK   51  A    between atoms: _115  and  _117
REMARK   52  A    between atoms: _117  and  _118
REMARK   53  A    between atoms: _117  and  _120
REMARK   54  A    between atoms: _120  and  _121
REMARK   55  A    between atoms: _124  and  _126
REMARK   56  A    between atoms: _126  and  _127
REMARK   57  A    between atoms: _130  and  _132
REMARK   58  A    between atoms: _132  and  _133
REMARK   59  A    between atoms: _132  and  _135
REMARK   60  A    between atoms: _135  and  _136
REMARK   61  A    between atoms: _139  and  _141
REMARK   62  A    between atoms: _141  and  _142
REMARK   63  A    between atoms: _141  and  _144
REMARK   64  A    between atoms: _144  and  _145
REMARK   65  A    between atoms: _145  and  _146
REMARK   66  A    between atoms: _146  and  _147
REMARK   67  A    between atoms: _147  and  _148
REMARK   68  A    between atoms: _152  and  _154
REMARK   69  A    between atoms: _154  and  _155
REMARK   70  A    between atoms: _154  and  _157
REMARK   71  A    between atoms: _157  and  _158
REMARK   72  A    between atoms: _161  and  _163
REMARK   73  A    between atoms: _163  and  _164
REMARK   74  A    between atoms: _163  and  _166
REMARK   75  A    between atoms: _169  and  _171
REMARK   76  A    between atoms: _171  and  _172
REMARK   77  A    between atoms: _171  and  _174
REMARK   78  A    between atoms: _174  and  _175
REMARK   79  A    between atoms: _178  and  _180
REMARK   80  A    between atoms: _180  and  _181
REMARK   81  A    between atoms: _180  and  _183
REMARK   82  A    between atoms: _183  and  _184
REMARK   83  A    between atoms: _187  and  _189
REMARK   84  A    between atoms: _189  and  _190
REMARK   85  A    between atoms: _192  and  _194
REMARK   86  A    between atoms: _194  and  _195
REMARK   87  A    between atoms: _194  and  _197
REMARK   88  A    between atoms: _197  and  _198
REMARK   89  A    between atoms: _201  and  _203
REMARK   90  A    between atoms: _203  and  _204
REMARK   91  A    between atoms: _206  and  _208
REMARK   92  A    between atoms: _208  and  _209
REMARK   93  A    between atoms: _208  and  _211
REMARK   94  A    between atoms: _211  and  _212
REMARK   95  A    between atoms: _212  and  _213
REMARK   96  A    between atoms: _215  and  _217
REMARK   97  A    between atoms: _217  and  _218
REMARK   98  A    between atoms: _217  and  _220
REMARK   99  A    between atoms: _220  and  _221
REMARK  100  A    between atoms: _224  and  _226
REMARK  101  A    between atoms: _226  and  _227
REMARK  102  A    between atoms: _226  and  _229
REMARK  103  A    between atoms: _229  and  _230
REMARK  104  A    between atoms: _233  and  _235
REMARK  105  A    between atoms: _235  and  _236
REMARK  106  A    between atoms: _235  and  _238
REMARK  107  A    between atoms: _238  and  _239
REMARK  108  A    between atoms: _242  and  _244
REMARK  109  A    between atoms: _244  and  _245
REMARK  110  A    between atoms: _244  and  _247
REMARK  111  A    between atoms: _247  and  _248
REMARK  112  A    between atoms: _253  and  _255
REMARK  113  A    between atoms: _255  and  _256
REMARK  114  A    between atoms: _255  and  _258
REMARK  115  A    between atoms: _258  and  _259
REMARK  116  A    between atoms: _262  and  _264
REMARK  117  A    between atoms: _264  and  _265
REMARK  118  A    between atoms: _267  and  _269
REMARK  119  A    between atoms: _269  and  _270
REMARK  120  A    between atoms: _269  and  _272
REMARK  121  A    between atoms: _272  and  _273
REMARK  122  A    between atoms: _276  and  _278
REMARK  123  A    between atoms: _278  and  _279
REMARK  124  A    between atoms: _282  and  _284
REMARK  125  A    between atoms: _284  and  _285
REMARK  126  A    between atoms: _287  and  _289
REMARK  127  A    between atoms: _289  and  _290
REMARK  128  A    between atoms: _289  and  _292
REMARK  129  A    between atoms: _295  and  _297
REMARK  130  A    between atoms: _297  and  _298
REMARK  131  A    between atoms: _300  and  _302
REMARK  132  A    between atoms: _302  and  _303
REMARK  133  A    between atoms: _302  and  _305
REMARK  134  A    between atoms: _305  and  _306
REMARK  135  A    between atoms: _312  and  _314
REMARK  136  A    between atoms: _314  and  _315
REMARK  137  A    between atoms: _314  and  _317
REMARK  138  A    between atoms: _317  and  _318
REMARK  139  A    between atoms: _323  and  _324
REMARK  140  A    between atoms: _326  and  _328
REMARK  141  A    between atoms: _328  and  _329
REMARK  142  A    between atoms: _328  and  _331
REMARK  143  A    between atoms: _331  and  _332
REMARK  144  A    between atoms: _334  and  _336
REMARK  145  A    between atoms: _336  and  _337
REMARK  146  A    between atoms: _340  and  _342
REMARK  147  A    between atoms: _342  and  _343
REMARK  148  A    between atoms: _342  and  _345
REMARK  149  A    between atoms: _345  and  _346
REMARK  150  A    between atoms: _351  and  _352
REMARK  151  A    between atoms: _354  and  _356
REMARK  152  A    between atoms: _356  and  _357
REMARK  153  A    between atoms: _356  and  _359
REMARK  154  A    between atoms: _362  and  _364
REMARK  155  A    between atoms: _364  and  _365
REMARK  156  A    between atoms: _364  and  _367
REMARK  157  A    between atoms: _367  and  _368
REMARK  158  A    between atoms: _371  and  _373
REMARK  159  A    between atoms: _373  and  _374
REMARK  160  A    between atoms: _373  and  _376
REMARK  161  A    between atoms: _379  and  _381
REMARK  162  A    between atoms: _381  and  _382
REMARK  163  A    between atoms: _381  and  _384
REMARK  164  A    between atoms: _384  and  _385
REMARK  165  A    between atoms: _388  and  _390
REMARK  166  A    between atoms: _390  and  _391
REMARK  167  A    between atoms: _390  and  _393
REMARK  168  A    between atoms: _393  and  _394
REMARK  169  A    between atoms: _397  and  _399
REMARK  170  A    between atoms: _399  and  _400
REMARK  171  A    between atoms: _399  and  _402
REMARK  172  A    between atoms: _402  and  _403
REMARK  173  A    between atoms: _403  and  _404
REMARK  174  A    between atoms: _404  and  _405
REMARK  175  A    between atoms: _405  and  _406
REMARK  176  A    between atoms: _410  and  _412
REMARK  177  A    between atoms: _412  and  _413
REMARK  178  A    between atoms: _416  and  _418
REMARK  179  A    between atoms: _418  and  _419
REMARK  180  A    between atoms: _418  and  _421
REMARK  181  A    between atoms: _421  and  _422
REMARK  182  A    between atoms: _432  and  _434
REMARK  183  A    between atoms: _434  and  _435
REMARK  184  A    between atoms: _434  and  _437
REMARK  185  A    between atoms: _437  and  _438
REMARK  186  A    between atoms: _438  and  _439
REMARK  187  A    between atoms: _442  and  _444
REMARK  188  A    between atoms: _444  and  _445
REMARK  189  A    between atoms: _444  and  _447
REMARK  190  A    between atoms: _447  and  _448
REMARK  191  A    between atoms: _450  and  _452
REMARK  192  A    between atoms: _452  and  _453
REMARK  193  A    between atoms: _452  and  _455
REMARK  194  A    between atoms: _455  and  _456
REMARK  195  A    between atoms: _462  and  _464
REMARK  196  A    between atoms: _464  and  _465
REMARK  197  A    between atoms: _464  and  _467
REMARK  198  A    between atoms: _467  and  _468
REMARK  199  A    between atoms: _471  and  _473
REMARK  200  A    between atoms: _473  and  _474
REMARK  201  A    between atoms: _473  and  _476
REMARK  202  A    between atoms: _479  and  _481
REMARK  203  A    between atoms: _481  and  _482
REMARK  204  A    between atoms: _484  and  _486
REMARK  205  A    between atoms: _486  and  _487
REMARK  206  A    between atoms: _486  and  _489
REMARK  207  A    between atoms: _489  and  _490
REMARK  208  A    between atoms: _493  and  _495
REMARK  209  A    between atoms: _495  and  _496
REMARK  210  A    between atoms: _495  and  _498
REMARK  211  A    between atoms: _498  and  _499
REMARK  212  A    between atoms: _499  and  _500
REMARK  213  A    between atoms: _500  and  _501
REMARK  214  A    between atoms: _501  and  _502
REMARK  215  A    between atoms: _506  and  _508
REMARK  216  A    between atoms: _508  and  _509
REMARK  217  A    between atoms: _508  and  _511
REMARK  218  A    between atoms: _514  and  _516
REMARK  219  A    between atoms: _516  and  _517
REMARK  220  A    between atoms: _516  and  _519
REMARK  221  A    between atoms: _519  and  _520
REMARK                            x       y       z     vdW  Elec       q    Type
REMARK                         _______ _______ _______ _____ _____    ______ ____
ROOT
ATOM      1  CA  MET A   1      13.355  17.001  16.044  0.00  0.00    +0.134 C 
ENDROOT
BRANCH   1   2
ATOM      2  N   MET A   1      14.129  15.776  16.276  0.00  0.00    -0.239 NA
ATOM      3  H   MET A   1      14.493  15.572  17.229  0.00  0.00    +0.142 HD
ENDBRANCH   1   2
BRANCH   1   4
ATOM      4  C   MET A   1      13.955  17.942  14.962  0.00  0.00    +0.224 C 
ATOM      5  O   MET A   1      13.207  18.512  14.156  0.00  0.00    -0.287 OA
ENDBRANCH   1   4
BRANCH   1   6
ATOM      6  CB  MET A   1      13.109  17.746  17.366  0.00  0.00    +0.037 C 
BRANCH   6   7
ATOM      7  CG  MET A   1      12.378  16.894  18.390  0.00  0.00    +0.059 C 
BRANCH   7   8
ATOM      8  SD  MET A   1      12.230  17.723  19.996  0.00  0.00    -0.139 S 
ATOM      9  CE  MET A   1      11.112  19.054  19.553  0.00  0.00    +0.069 C 
ENDBRANCH   7   8
ENDBRANCH   6   7
ENDBRANCH   1   6
TORSDOF 5
REMARK  Name = ../refined-set-2016/4bqg/4bqg_pocket.pdb
REMARK  221 active torsions:
REMARK  status: ('A' for Active; 'I' for Inactive)
REMARK    1  A    between atoms: _1  and  _3
REMARK    2  A    between atoms: _3  and  _4
REMARK    3  A    between atoms: _3  and  _6
REMARK    4  A    between atoms: _6  and  _7
REMARK    5  A    between atoms: _13  and  _15
REMARK    6  A    between atoms: _15  and  _16
REMARK    7  A    between atoms: _15  and  _18
REMARK    8  A    between atoms: _18  and  _19
REMARK    9  A    between atoms: _22  and  _24
REMARK   10  A    between atoms: _24  and  _25
REMARK   11  A    between atoms: _24  and  _27
REMARK   12  A    between atoms: _27  and  _28
REMARK   13  A    between atoms: _28  and  _29
REMARK   14  A    between atoms: _31  and  _33
REMARK   15  A    between atoms: _33  and  _34
REMARK   16  A    between atoms: _33  and  _36
REMARK   17  A    between atoms: _36  and  _37
REMARK   18  A    between atoms: _43  and  _45
REMARK   19  A    between atoms: _45  and  _46
REMARK   20  A    between atoms: _45  and  _48
REMARK   21  A    between atoms: _48  and  _49
REMARK   22  A    between atoms: _52  and  _54
REMARK   23  A    between atoms: _54  and  _55
REMARK   24  A    between atoms: _54  and  _57
REMARK   25  A    between atoms: _57  and  _58
REMARK   26  A    between atoms: _58  and  _59
REMARK   27  A    between atoms: _62  and  _64
REMARK   28  A    between atoms: _64  and  _65
REMARK   29  A    between atoms: _64  and  _67
REMARK   30  A    between atoms: _67  and  _68
REMARK   31  A    between atoms: _71  and  _73
REMARK   32  A    between atoms: _73  and  _74
REMARK   33  A    between atoms: _73  and  _76
REMARK   34  A    between atoms: _76  and  _77
REMARK   35  A    between atoms: _80  and  _82
REMARK   36  A    between atoms: _82  and  _83
REMARK   37  A    between atoms: _82  and  _85
REMARK   38  A    between atoms: _85  and  _86
REMARK   39  A    between atoms: _88  and  _90
REMARK   40  A    between atoms: _90  and  _91
REMARK   41  A    between atoms: _90  and  _93
REMARK   42  A    between atoms: _93  and  _94
REMARK   43  A    between atoms: _99  and  _101
REMARK   44  A    between atoms: _101  and  _102
REMARK   45  A    between atoms: _101  and  _104
REMARK   46  A    between atoms: _104  and  _105
REMARK   47  A    between atoms: _107  and  _109
REMARK   48  A    between atoms: _109  and  _110
REMARK   49  A    between atoms: _109  and  _112
REMARK   50  A    between atoms: _112  and  _113
REMARK   51  A    between atoms: _115  and  _117
REMARK   52  A    between atoms: _117  and  _118
REMARK   53  A    between atoms: _117  and  _120
REMARK   54  A    between atoms: _120  and  _121
REMARK   55  A    between atoms: _124  and  _126
REMARK   56  A    between atoms: _126  and  _127
REMARK   57  A    between atoms: _130  and  _132
REMARK   58  A    between atoms: _132  and  _133
REMARK   59  A    between atoms: _132  and  _135
REMARK   60  A    between atoms: _135  and  _136
REMARK   61  A    between atoms: _139  and  _141
REMARK   62  A    between atoms: _141  and  _142
REMARK   63  A    between atoms: _141  and  _144
REMARK   64  A    between atoms: _144  and  _145
REMARK   65  A    between atoms: _145  and  _146
REMARK   66  A    between atoms: _146  and  _147
REMARK   67  A    between atoms: _147  and  _148
REMARK   68  A    between atoms: _152  and  _154
REMARK   69  A    between atoms: _154  and  _155
REMARK   70  A    between atoms: _154  and  _157
REMARK   71  A    between atoms: _157  and  _158
REMARK   72  A    between atoms: _161  and  _163
REMARK   73  A    between atoms: _163  and  _164
REMARK   74  A    between atoms: _163  and  _166
REMARK   75  A    between atoms: _169  and  _171
REMARK   76  A    between atoms: _171  and  _172
REMARK   77  A    between atoms: _171  and  _174
REMARK   78  A    between atoms: _174  and  _175
REMARK   79  A    between atoms: _178  and  _180
REMARK   80  A    between atoms: _180  and  _181
REMARK   81  A    between atoms: _180  and  _183
REMARK   82  A    between atoms: _183  and  _184
REMARK   83  A    between atoms: _187  and  _189
REMARK   84  A    between atoms: _189  and  _190
REMARK   85  A    between atoms: _192  and  _194
REMARK   86  A    between atoms: _194  and  _195
REMARK   87  A    between atoms: _194  and  _197
REMARK   88  A    between atoms: _197  and  _198
REMARK   89  A    between atoms: _201  and  _203
REMARK   90  A    between atoms: _203  and  _204
REMARK   91  A    between atoms: _206  and  _208
REMARK   92  A    between atoms: _208  and  _209
REMARK   93  A    between atoms: _208  and  _211
REMARK   94  A    between atoms: _211  and  _212
REMARK   95  A    between atoms: _212  and  _213
REMARK   96  A    between atoms: _215  and  _217
REMARK   97  A    between atoms: _217  and  _218
REMARK   98  A    between atoms: _217  and  _220
REMARK   99  A    between atoms: _220  and  _221
REMARK  100  A    between atoms: _224  and  _226
REMARK  101  A    between atoms: _226  and  _227
REMARK  102  A    between atoms: _226  and  _229
REMARK  103  A    between atoms: _229  and  _230
REMARK  104  A    between atoms: _233  and  _235
REMARK  105  A    between atoms: _235  and  _236
REMARK  106  A    between atoms: _235  and  _238
REMARK  107  A    between atoms: _238  and  _239
REMARK  108  A    between atoms: _242  and  _244
REMARK  109  A    between atoms: _244  and  _245
REMARK  110  A    between atoms: _244  and  _247
REMARK  111  A    between atoms: _247  and  _248
REMARK  112  A    between atoms: _253  and  _255
REMARK  113  A    between atoms: _255  and  _256
REMARK  114  A    between atoms: _255  and  _258
REMARK  115  A    between atoms: _258  and  _259
REMARK  116  A    between atoms: _262  and  _264
REMARK  117  A    between atoms: _264  and  _265
REMARK  118  A    between atoms: _267  and  _269
REMARK  119  A    between atoms: _269  and  _270
REMARK  120  A    between atoms: _269  and  _272
REMARK  121  A    between atoms: _272  and  _273
REMARK  122  A    between atoms: _276  and  _278
REMARK  123  A    between atoms: _278  and  _279
REMARK  124  A    between atoms: _282  and  _284
REMARK  125  A    between atoms: _284  and  _285
REMARK  126  A    between atoms: _287  and  _289
REMARK  127  A    between atoms: _289  and  _290
REMARK  128  A    between atoms: _289  and  _292
REMARK  129  A    between atoms: _295  and  _297
REMARK  130  A    between atoms: _297  and  _298
REMARK  131  A    between atoms: _300  and  _302
REMARK  132  A    between atoms: _302  and  _303
REMARK  133  A    between atoms: _302  and  _305
REMARK  134  A    between atoms: _305  and  _306
REMARK  135  A    between atoms: _312  and  _314
REMARK  136  A    between atoms: _314  and  _315
REMARK  137  A    between atoms: _314  and  _317
REMARK  138  A    between atoms: _317  and  _318
REMARK  139  A    between atoms: _323  and  _324
REMARK  140  A    between atoms: _326  and  _328
REMARK  141  A    between atoms: _328  and  _329
REMARK  142  A    between atoms: _328  and  _331
REMARK  143  A    between atoms: _331  and  _332
REMARK  144  A    between atoms: _334  and  _336
REMARK  145  A    between atoms: _336  and  _337
REMARK  146  A    between atoms: _340  and  _342
REMARK  147  A    between atoms: _342  and  _343
REMARK  148  A    between atoms: _342  and  _345
REMARK  149  A    between atoms: _345  and  _346
REMARK  150  A    between atoms: _351  and  _352
REMARK  151  A    between atoms: _354  and  _356
REMARK  152  A    between atoms: _356  and  _357
REMARK  153  A    between atoms: _356  and  _359
REMARK  154  A    between atoms: _362  and  _364
REMARK  155  A    between atoms: _364  and  _365
REMARK  156  A    between atoms: _364  and  _367
REMARK  157  A    between atoms: _367  and  _368
REMARK  158  A    between atoms: _371  and  _373
REMARK  159  A    between atoms: _373  and  _374
REMARK  160  A    between atoms: _373  and  _376
REMARK  161  A    between atoms: _379  and  _381
REMARK  162  A    between atoms: _381  and  _382
REMARK  163  A    between atoms: _381  and  _384
REMARK  164  A    between atoms: _384  and  _385
REMARK  165  A    between atoms: _388  and  _390
REMARK  166  A    between atoms: _390  and  _391
REMARK  167  A    between atoms: _390  and  _393
REMARK  168  A    between atoms: _393  and  _394
REMARK  169  A    between atoms: _397  and  _399
REMARK  170  A    between atoms: _399  and  _400
REMARK  171  A    between atoms: _399  and  _402
REMARK  172  A    between atoms: _402  and  _403
REMARK  173  A    between atoms: _403  and  _404
REMARK  174  A    between atoms: _404  and  _405
REMARK  175  A    between atoms: _405  and  _406
REMARK  176  A    between atoms: _410  and  _412
REMARK  177  A    between atoms: _412  and  _413
REMARK  178  A    between atoms: _416  and  _418
REMARK  179  A    between atoms: _418  and  _419
REMARK  180  A    between atoms: _418  and  _421
REMARK  181  A    between atoms: _421  and  _422
REMARK  182  A    between atoms: _432  and  _434
REMARK  183  A    between atoms: _434  and  _435
REMARK  184  A    between atoms: _434  and  _437
REMARK  185  A    between atoms: _437  and  _438
REMARK  186  A    between atoms: _438  and  _439
REMARK  187  A    between atoms: _442  and  _444
REMARK  188  A    between atoms: _444  and  _445
REMARK  189  A    between atoms: _444  and  _447
REMARK  190  A    between atoms: _447  and  _448
REMARK  191  A    between atoms: _450  and  _452
REMARK  192  A    between atoms: _452  and  _453
REMARK  193  A    between atoms: _452  and  _455
REMARK  194  A    between atoms: _455  and  _456
REMARK  195  A    between atoms: _462  and  _464
REMARK  196  A    between atoms: _464  and  _465
REMARK  197  A    between atoms: _464  and  _467
REMARK  198  A    between atoms: _467  and  _468
REMARK  199  A    between atoms: _471  and  _473
REMARK  200  A    between atoms: _473  and  _474
REMARK  201  A    between atoms: _473  and  _476
REMARK  202  A    between atoms: _479  and  _481
REMARK  203  A    between atoms: _481  and  _482
REMARK  204  A    between atoms: _484  and  _486
REMARK  205  A    between atoms: _486  and  _487
REMARK  206  A    between atoms: _486  and  _489
REMARK  207  A    between atoms: _489  and  _490
REMARK  208  A    between atoms: _493  and  _495
REMARK  209  A    between atoms: _495  and  _496
REMARK  210  A    between atoms: _495  and  _498
REMARK  211  A    between atoms: _498  and  _499
REMARK  212  A    between atoms: _499  and  _500
REMARK  213  A    between atoms: _500  and  _501
REMARK  214  A    between atoms: _501  and  _502
REMARK  215  A    between atoms: _506  and  _508
REMARK  216  A    between atoms: _508  and  _509
REMARK  217  A    between atoms: _508  and  _511
REMARK  218  A    between atoms: _514  and  _516
REMARK  219  A    between atoms: _516  and  _517
REMARK  220  A    between atoms: _516  and  _519
REMARK  221  A    between atoms: _519  and  _520
REMARK                            x       y       z     vdW  Elec       q    Type
REMARK                         _______ _______ _______ _____ _____    ______ ____
ROOT
ATOM      1  C   PHE A   1      -0.156  13.984  12.707  0.00  0.00    +0.239 C 
ATOM      2  O   PHE A   1      -0.125  13.622  13.889  0.00  0.00    -0.274 OA
ATOM      3  N   LEU A   2      -1.298  14.196  12.037  0.00  0.00    -0.298 N 
ATOM      4  H   LEU A   2      -1.259  14.447  11.028  0.00  0.00    +0.150 HD
ENDROOT
BRANCH   1   5
ATOM      5  CA  PHE A   1       1.146  14.286  11.955  0.00  0.00    +0.149 C 
BRANCH   5   6
ATOM      6  N   PHE A   1       1.022  13.894  10.540  0.00  0.00    -0.238 NA
ATOM      7  H   PHE A   1       1.189  14.583   9.779  0.00  0.00    +0.142 HD
ENDBRANCH   5   6
BRANCH   5   8
ATOM      8  CB  PHE A   1       1.474  15.784  12.118  0.00  0.00    +0.053 C 
BRANCH   8   9
ATOM      9  CG  PHE A   1       0.264  16.673  11.972  0.00  0.00    -0.020 A 
ATOM     10  CD2 PHE A   1      -0.494  17.042  13.087  0.00  0.00    -0.004 A 
ATOM     11  CE2 PHE A   1      -1.623  17.853  12.937  0.00  0.00    -0.000 A 
ATOM     12  CZ  PHE A   1      -1.999  18.274  11.686  0.00  0.00    -0.000 A 
ATOM     13  CE1 PHE A   1      -1.280  17.900  10.572  0.00  0.00    -0.000 A 
ATOM     14  CD1 PHE A   1      -0.139  17.104  10.715  0.00  0.00    -0.004 A 
ENDBRANCH   8   9
ENDBRANCH   5   8
ENDBRANCH   1   5
BRANCH   3  15
ATOM     15  CA  LEU A   2      -2.590  14.082  12.693  0.00  0.00    +0.137 C 
BRANCH  15  16
ATOM     16  C   LEU A   2      -2.915  12.635  13.052  0.00  0.00    +0.227 C 
ATOM     17  O   LEU A   2      -3.417  12.354  14.144  0.00  0.00    -0.286 OA
ENDBRANCH  15  16
BRANCH  15  18
ATOM     18  CB  LEU A   2      -3.714  14.763  11.877  0.00  0.00    +0.028 C 
BRANCH  18  19
ATOM     19  CG  LEU A   2      -5.098  14.832  12.564  0.00  0.00    +0.002 C 
ATOM     20  CD2 LEU A   2      -5.074  15.615  13.873  0.00  0.00    +0.000 C 
ATOM     21  CD1 LEU A   2      -6.161  15.425  11.634  0.00  0.00    +0.000 C 
ENDBRANCH  18  19
ENDBRANCH  15  18
ENDBRANCH   3  15
TORSDOF 8
REMARK  Name = ../refined-set-2016/4bqg/4bqg_pocket.pdb
REMARK  221 active torsions:
REMARK  status: ('A' for Active; 'I' for Inactive)
REMARK    1  A    between atoms: _1  and  _3
REMARK    2  A    between atoms: _3  and  _4
REMARK    3  A    between atoms: _3  and  _6
REMARK    4  A    between atoms: _6  and  _7
REMARK    5  A    between atoms: _13  and  _15
REMARK    6  A    between atoms: _15  and  _16
REMARK    7  A    between atoms: _15  and  _18
REMARK    8  A    between atoms: _18  and  _19
REMARK    9  A    between atoms: _22  and  _24
REMARK   10  A    between atoms: _24  and  _25
REMARK   11  A    between atoms: _24  and  _27
REMARK   12  A    between atoms: _27  and  _28
REMARK   13  A    between atoms: _28  and  _29
REMARK   14  A    between atoms: _31  and  _33
REMARK   15  A    between atoms: _33  and  _34
REMARK   16  A    between atoms: _33  and  _36
REMARK   17  A    between atoms: _36  and  _37
REMARK   18  A    between atoms: _43  and  _45
REMARK   19  A    between atoms: _45  and  _46
REMARK   20  A    between atoms: _45  and  _48
REMARK   21  A    between atoms: _48  and  _49
REMARK   22  A    between atoms: _52  and  _54
REMARK   23  A    between atoms: _54  and  _55
REMARK   24  A    between atoms: _54  and  _57
REMARK   25  A    between atoms: _57  and  _58
REMARK   26  A    between atoms: _58  and  _59
REMARK   27  A    between atoms: _62  and  _64
REMARK   28  A    between atoms: _64  and  _65
REMARK   29  A    between atoms: _64  and  _67
REMARK   30  A    between atoms: _67  and  _68
REMARK   31  A    between atoms: _71  and  _73
REMARK   32  A    between atoms: _73  and  _74
REMARK   33  A    between atoms: _73  and  _76
REMARK   34  A    between atoms: _76  and  _77
REMARK   35  A    between atoms: _80  and  _82
REMARK   36  A    between atoms: _82  and  _83
REMARK   37  A    between atoms: _82  and  _85
REMARK   38  A    between atoms: _85  and  _86
REMARK   39  A    between atoms: _88  and  _90
REMARK   40  A    between atoms: _90  and  _91
REMARK   41  A    between atoms: _90  and  _93
REMARK   42  A    between atoms: _93  and  _94
REMARK   43  A    between atoms: _99  and  _101
REMARK   44  A    between atoms: _101  and  _102
REMARK   45  A    between atoms: _101  and  _104
REMARK   46  A    between atoms: _104  and  _105
REMARK   47  A    between atoms: _107  and  _109
REMARK   48  A    between atoms: _109  and  _110
REMARK   49  A    between atoms: _109  and  _112
REMARK   50  A    between atoms: _112  and  _113
REMARK   51  A    between atoms: _115  and  _117
REMARK   52  A    between atoms: _117  and  _118
REMARK   53  A    between atoms: _117  and  _120
REMARK   54  A    between atoms: _120  and  _121
REMARK   55  A    between atoms: _124  and  _126
REMARK   56  A    between atoms: _126  and  _127
REMARK   57  A    between atoms: _130  and  _132
REMARK   58  A    between atoms: _132  and  _133
REMARK   59  A    between atoms: _132  and  _135
REMARK   60  A    between atoms: _135  and  _136
REMARK   61  A    between atoms: _139  and  _141
REMARK   62  A    between atoms: _141  and  _142
REMARK   63  A    between atoms: _141  and  _144
REMARK   64  A    between atoms: _144  and  _145
REMARK   65  A    between atoms: _145  and  _146
REMARK   66  A    between atoms: _146  and  _147
REMARK   67  A    between atoms: _147  and  _148
REMARK   68  A    between atoms: _152  and  _154
REMARK   69  A    between atoms: _154  and  _155
REMARK   70  A    between atoms: _154  and  _157
REMARK   71  A    between atoms: _157  and  _158
REMARK   72  A    between atoms: _161  and  _163
REMARK   73  A    between atoms: _163  and  _164
REMARK   74  A    between atoms: _163  and  _166
REMARK   75  A    between atoms: _169  and  _171
REMARK   76  A    between atoms: _171  and  _172
REMARK   77  A    between atoms: _171  and  _174
REMARK   78  A    between atoms: _174  and  _175
REMARK   79  A    between atoms: _178  and  _180
REMARK   80  A    between atoms: _180  and  _181
REMARK   81  A    between atoms: _180  and  _183
REMARK   82  A    between atoms: _183  and  _184
REMARK   83  A    between atoms: _187  and  _189
REMARK   84  A    between atoms: _189  and  _190
REMARK   85  A    between atoms: _192  and  _194
REMARK   86  A    between atoms: _194  and  _195
REMARK   87  A    between atoms: _194  and  _197
REMARK   88  A    between atoms: _197  and  _198
REMARK   89  A    between atoms: _201  and  _203
REMARK   90  A    between atoms: _203  and  _204
REMARK   91  A    between atoms: _206  and  _208
REMARK   92  A    between atoms: _208  and  _209
REMARK   93  A    between atoms: _208  and  _211
REMARK   94  A    between atoms: _211  and  _212
REMARK   95  A    between atoms: _212  and  _213
REMARK   96  A    between atoms: _215  and  _217
REMARK   97  A    between atoms: _217  and  _218
REMARK   98  A    between atoms: _217  and  _220
REMARK   99  A    between atoms: _220  and  _221
REMARK  100  A    between atoms: _224  and  _226
REMARK  101  A    between atoms: _226  and  _227
REMARK  102  A    between atoms: _226  and  _229
REMARK  103  A    between atoms: _229  and  _230
REMARK  104  A    between atoms: _233  and  _235
REMARK  105  A    between atoms: _235  and  _236
REMARK  106  A    between atoms: _235  and  _238
REMARK  107  A    between atoms: _238  and  _239
REMARK  108  A    between atoms: _242  and  _244
REMARK  109  A    between atoms: _244  and  _245
REMARK  110  A    between atoms: _244  and  _247
REMARK  111  A    between atoms: _247  and  _248
REMARK  112  A    between atoms: _253  and  _255
REMARK  113  A    between atoms: _255  and  _256
REMARK  114  A    between atoms: _255  and  _258
REMARK  115  A    between atoms: _258  and  _259
REMARK  116  A    between atoms: _262  and  _264
REMARK  117  A    between atoms: _264  and  _265
REMARK  118  A    between atoms: _267  and  _269
REMARK  119  A    between atoms: _269  and  _270
REMARK  120  A    between atoms: _269  and  _272
REMARK  121  A    between atoms: _272  and  _273
REMARK  122  A    between atoms: _276  and  _278
REMARK  123  A    between atoms: _278  and  _279
REMARK  124  A    between atoms: _282  and  _284
REMARK  125  A    between atoms: _284  and  _285
REMARK  126  A    between atoms: _287  and  _289
REMARK  127  A    between atoms: _289  and  _290
REMARK  128  A    between atoms: _289  and  _292
REMARK  129  A    between atoms: _295  and  _297
REMARK  130  A    between atoms: _297  and  _298
REMARK  131  A    between atoms: _300  and  _302
REMARK  132  A    between atoms: _302  and  _303
REMARK  133  A    between atoms: _302  and  _305
REMARK  134  A    between atoms: _305  and  _306
REMARK  135  A    between atoms: _312  and  _314
REMARK  136  A    between atoms: _314  and  _315
REMARK  137  A    between atoms: _314  and  _317
REMARK  138  A    between atoms: _317  and  _318
REMARK  139  A    between atoms: _323  and  _324
REMARK  140  A    between atoms: _326  and  _328
REMARK  141  A    between atoms: _328  and  _329
REMARK  142  A    between atoms: _328  and  _331
REMARK  143  A    between atoms: _331  and  _332
REMARK  144  A    between atoms: _334  and  _336
REMARK  145  A    between atoms: _336  and  _337
REMARK  146  A    between atoms: _340  and  _342
REMARK  147  A    between atoms: _342  and  _343
REMARK  148  A    between atoms: _342  and  _345
REMARK  149  A    between atoms: _345  and  _346
REMARK  150  A    between atoms: _351  and  _352
REMARK  151  A    between atoms: _354  and  _356
REMARK  152  A    between atoms: _356  and  _357
REMARK  153  A    between atoms: _356  and  _359
REMARK  154  A    between atoms: _362  and  _364
REMARK  155  A    between atoms: _364  and  _365
REMARK  156  A    between atoms: _364  and  _367
REMARK  157  A    between atoms: _367  and  _368
REMARK  158  A    between atoms: _371  and  _373
REMARK  159  A    between atoms: _373  and  _374
REMARK  160  A    between atoms: _373  and  _376
REMARK  161  A    between atoms: _379  and  _381
REMARK  162  A    between atoms: _381  and  _382
REMARK  163  A    between atoms: _381  and  _384
REMARK  164  A    between atoms: _384  and  _385
REMARK  165  A    between atoms: _388  and  _390
REMARK  166  A    between atoms: _390  and  _391
REMARK  167  A    between atoms: _390  and  _393
REMARK  168  A    between atoms: _393  and  _394
REMARK  169  A    between atoms: _397  and  _399
REMARK  170  A    between atoms: _399  and  _400
REMARK  171  A    between atoms: _399  and  _402
REMARK  172  A    between atoms: _402  and  _403
REMARK  173  A    between atoms: _403  and  _404
REMARK  174  A    between atoms: _404  and  _405
REMARK  175  A    between atoms: _405  and  _406
REMARK  176  A    between atoms: _410  and  _412
REMARK  177  A    between atoms: _412  and  _413
REMARK  178  A    between atoms: _416  and  _418
REMARK  179  A    between atoms: _418  and  _419
REMARK  180  A    between atoms: _418  and  _421
REMARK  181  A    between atoms: _421  and  _422
REMARK  182  A    between atoms: _432  and  _434
REMARK  183  A    between atoms: _434  and  _435
REMARK  184  A    between atoms: _434  and  _437
REMARK  185  A    between atoms: _437  and  _438
REMARK  186  A    between atoms: _438  and  _439
REMARK  187  A    between atoms: _442  and  _444
REMARK  188  A    between atoms: _444  and  _445
REMARK  189  A    between atoms: _444  and  _447
REMARK  190  A    between atoms: _447  and  _448
REMARK  191  A    between atoms: _450  and  _452
REMARK  192  A    between atoms: _452  and  _453
REMARK  193  A    between atoms: _452  and  _455
REMARK  194  A    between atoms: _455  and  _456
REMARK  195  A    between atoms: _462  and  _464
REMARK  196  A    between atoms: _464  and  _465
REMARK  197  A    between atoms: _464  and  _467
REMARK  198  A    between atoms: _467  and  _468
REMARK  199  A    between atoms: _471  and  _473
REMARK  200  A    between atoms: _473  and  _474
REMARK  201  A    between atoms: _473  and  _476
REMARK  202  A    between atoms: _479  and  _481
REMARK  203  A    between atoms: _481  and  _482
REMARK  204  A    between atoms: _484  and  _486
REMARK  205  A    between atoms: _486  and  _487
REMARK  206  A    between atoms: _486  and  _489
REMARK  207  A    between atoms: _489  and  _490
REMARK  208  A    between atoms: _493  and  _495
REMARK  209  A    between atoms: _495  and  _496
REMARK  210  A    between atoms: _495  and  _498
REMARK  211  A    between atoms: _498  and  _499
REMARK  212  A    between atoms: _499  and  _500
REMARK  213  A    between atoms: _500  and  _501
REMARK  214  A    between atoms: _501  and  _502
REMARK  215  A    between atoms: _506  and  _508
REMARK  216  A    between atoms: _508  and  _509
REMARK  217  A    between atoms: _508  and  _511
REMARK  218  A    between atoms: _514  and  _516
REMARK  219  A    between atoms: _516  and  _517
REMARK  220  A    between atoms: _516  and  _519
REMARK  221  A    between atoms: _519  and  _520
REMARK                            x       y       z     vdW  Elec       q    Type
REMARK                         _______ _______ _______ _____ _____    ______ ____
ROOT
ATOM      1  CA  ASN A   5      -1.290   8.465  20.672  0.00  0.00    +0.158 C 
ENDROOT
BRANCH   1   4
ATOM      2  C   SER A   4      -2.518   7.216  18.958  0.00  0.00    +0.243 C 
ATOM      3  O   SER A   4      -2.795   6.292  19.743  0.00  0.00    -0.273 OA
ATOM      4  N   ASN A   5      -1.744   8.257  19.293  0.00  0.00    -0.297 N 
ATOM      5  H   ASN A   5      -1.458   8.934  18.557  0.00  0.00    +0.150 HD
BRANCH   2   6
ATOM      6  CA  SER A   4      -3.047   7.183  17.514  0.00  0.00    +0.178 C 
BRANCH   6   9
ATOM      7  C   ILE A   3      -4.510   9.146  17.684  0.00  0.00    +0.241 C 
ATOM      8  O   ILE A   3      -5.168   8.656  18.620  0.00  0.00    -0.273 OA
ATOM      9  N   SER A   4      -3.496   8.506  17.085  0.00  0.00    -0.295 N 
ATOM     10  H   SER A   4      -3.012   8.967  16.288  0.00  0.00    +0.150 HD
BRANCH   7  11
ATOM     11  CA  ILE A   3      -4.835  10.559  17.173  0.00  0.00    +0.149 C 
BRANCH  11  14
ATOM     12  C   LEU A   2      -2.747  11.590  17.859  0.00  0.00    +0.241 C 
ATOM     13  O   LEU A   2      -2.989  11.331  19.060  0.00  0.00    -0.273 OA
ATOM     14  N   ILE A   3      -3.600  11.322  16.874  0.00  0.00    -0.297 N 
ATOM     15  H   ILE A   3      -3.403  11.644  15.905  0.00  0.00    +0.150 HD
BRANCH  12  16
ATOM     16  CA  LEU A   2      -1.432  12.279  17.466  0.00  0.00    +0.149 C 
BRANCH  16  19
ATOM     17  C   GLU A   1      -0.359  10.533  16.214  0.00  0.00    +0.238 C 
ATOM     18  O   GLU A   1      -0.268   9.824  17.247  0.00  0.00    -0.274 OA
ATOM     19  N   LEU A   2      -0.911  11.739  16.213  0.00  0.00    -0.297 N 
ATOM     20  H   LEU A   2      -0.972  12.291  15.334  0.00  0.00    +0.150 HD
BRANCH  17  21
ATOM     21  CA  GLU A   1       0.184  10.052  14.882  0.00  0.00    +0.145 C 
BRANCH  21  22
ATOM     22  N   GLU A   1      -0.701  10.435  13.768  0.00  0.00    -0.238 NA
ATOM     23  H   GLU A   1      -0.373  11.131  13.069  0.00  0.00    +0.142 HD
ENDBRANCH  21  22
BRANCH  21  24
ATOM     24  CB  GLU A   1       1.614  10.584  14.675  0.00  0.00    +0.038 C 
BRANCH  24  25
ATOM     25  CG  GLU A   1       2.301  10.029  13.415  0.00  0.00    +0.116 C 
BRANCH  25  26
ATOM     26  CD  GLU A   1       2.271   8.490  13.330  0.00  0.00    +0.365 C 
ATOM     27  OE2 GLU A   1       2.507   7.822  14.355  0.00  0.00    -0.246 OA
ATOM     28  OE1 GLU A   1       2.021   7.945  12.228  0.00  0.00    -0.246 OA
ENDBRANCH  25  26
ENDBRANCH  24  25
ENDBRANCH  21  24
ENDBRANCH  17  21
ENDBRANCH  16  19
BRANCH  16  29
ATOM     29  CB  LEU A   2      -1.600  13.802  17.403  0.00  0.00    +0.029 C 
BRANCH  29  30
ATOM     30  CG  LEU A   2      -0.293  14.553  17.092  0.00  0.00    +0.002 C 
ATOM     31  CD2 LEU A   2       0.922  14.253  17.987  0.00  0.00    +0.000 C 
ATOM     32  CD1 LEU A   2      -0.578  16.046  17.026  0.00  0.00    +0.000 C 
ENDBRANCH  29  30
ENDBRANCH  16  29
ENDBRANCH  12  16
ENDBRANCH  11  14
BRANCH  11  33
ATOM     33  CB  ILE A   3      -5.807  10.579  15.970  0.00  0.00    +0.027 C 
ATOM     34  CG2 ILE A   3      -6.905   9.503  16.102  0.00  0.00    +0.002 C 
BRANCH  33  35
ATOM     35  CG1 ILE A   3      -6.356  12.010  15.796  0.00  0.00    +0.002 C 
ATOM     36  CD1 ILE A   3      -7.099  12.254  14.489  0.00  0.00    +0.000 C 
ENDBRANCH  33  35
ENDBRANCH  11  33
ENDBRANCH   7  11
ENDBRANCH   6   9
BRANCH   6  37
ATOM     37  CB  SER A   4      -1.946   6.688  16.559  0.00  0.00    +0.166 C 
BRANCH  37  38
ATOM     38  OG  SER A   4      -1.311   5.538  17.059  0.00  0.00    -0.380 OA
ATOM     39  H   SER A   4      -0.898   5.745  17.935  0.00  0.00    +0.211 HD
ENDBRANCH  37  38
ENDBRANCH   6  37
ENDBRANCH   2   6
ENDBRANCH   1   4
BRANCH   1  40
ATOM     40  C   ASN A   5      -2.483   8.620  21.638  0.00  0.00    +0.241 C 
ATOM     41  O   ASN A   5      -2.467   8.056  22.736  0.00  0.00    -0.273 OA
ATOM     42  N   SER A   6      -3.505   9.379  21.236  0.00  0.00    -0.295 N 
ATOM     43  H   SER A   6      -3.458   9.854  20.312  0.00  0.00    +0.150 HD
BRANCH  42  44
ATOM     44  CA  SER A   6      -4.691   9.552  22.078  0.00  0.00    +0.178 C 
BRANCH  44  45
ATOM     45  C   SER A   6      -5.446   8.245  22.291  0.00  0.00    +0.243 C 
ATOM     46  O   SER A   6      -5.827   7.907  23.417  0.00  0.00    -0.273 OA
ATOM     47  N   SER A   7      -5.661   7.508  21.202  0.00  0.00    -0.295 N 
ATOM     48  H   SER A   7      -5.367   7.884  20.278  0.00  0.00    +0.150 HD
BRANCH  47  49
ATOM     49  CA  SER A   7      -6.293   6.194  21.256  0.00  0.00    +0.178 C 
BRANCH  49  50
ATOM     50  C   SER A   7      -5.514   5.254  22.207  0.00  0.00    +0.243 C 
ATOM     51  O   SER A   7      -6.128   4.572  23.040  0.00  0.00    -0.273 OA
ATOM     52  N   ASP A   8      -4.187   5.223  22.124  0.00  0.00    -0.296 N 
ATOM     53  H   ASP A   8      -3.702   5.804  21.411  0.00  0.00    +0.150 HD
BRANCH  52  54
ATOM     54  CA  ASP A   8      -3.386   4.360  23.047  0.00  0.00    +0.160 C 
BRANCH  54  55
ATOM     55  C   ASP A   8      -3.616   4.765  24.522  0.00  0.00    +0.241 C 
ATOM     56  O   ASP A   8      -3.818   3.906  25.407  0.00  0.00    -0.273 OA
ATOM     57  N   ALA A   9      -3.628   6.076  24.772  0.00  0.00    -0.297 N 
ATOM     58  H   ALA A   9      -3.484   6.742  23.986  0.00  0.00    +0.150 HD
BRANCH  57  59
ATOM     59  CA  ALA A   9      -3.842   6.612  26.144  0.00  0.00    +0.149 C 
ATOM     60  CB  ALA A   9      -3.568   8.102  26.170  0.00  0.00    +0.031 C 
BRANCH  59  61
ATOM     61  C   ALA A   9      -5.252   6.303  26.661  0.00  0.00    +0.241 C 
ATOM     62  O   ALA A   9      -5.458   6.070  27.877  0.00  0.00    -0.273 OA
ATOM     63  N   LEU A  10      -6.226   6.327  25.760  0.00  0.00    -0.298 N 
ATOM     64  H   LEU A  10      -6.018   6.681  24.805  0.00  0.00    +0.150 HD
BRANCH  63  65
ATOM     65  CA  LEU A  10      -7.579   5.873  26.065  0.00  0.00    +0.137 C 
BRANCH  65  66
ATOM     66  C   LEU A  10      -7.674   4.368  26.342  0.00  0.00    +0.227 C 
ATOM     67  O   LEU A  10      -8.347   3.953  27.302  0.00  0.00    -0.286 OA
ENDBRANCH  65  66
BRANCH  65  68
ATOM     68  CB  LEU A  10      -8.550   6.305  24.955  0.00  0.00    +0.028 C 
BRANCH  68  69
ATOM     69  CG  LEU A  10      -8.805   7.822  24.915  0.00  0.00    +0.002 C 
ATOM     70  CD2 LEU A  10      -9.848   8.281  25.929  0.00  0.00    +0.000 C 
ATOM     71  CD1 LEU A  10      -9.224   8.248  23.525  0.00  0.00    +0.000 C 
ENDBRANCH  68  69
ENDBRANCH  65  68
ENDBRANCH  63  65
ENDBRANCH  59  61
ENDBRANCH  57  59
ENDBRANCH  54  55
BRANCH  54  72
ATOM     72  CB  ASP A   8      -1.902   4.479  22.730  0.00  0.00    +0.143 C 
BRANCH  72  73
ATOM     73  CG  ASP A   8      -1.510   3.757  21.434  0.00  0.00    +0.367 C 
ATOM     74  OD2 ASP A   8      -0.425   4.035  20.921  0.00  0.00    -0.246 OA
ATOM     75  OD1 ASP A   8      -2.304   2.969  20.914  0.00  0.00    -0.246 OA
ENDBRANCH  72  73
ENDBRANCH  54  72
ENDBRANCH  52  54
ENDBRANCH  49  50
BRANCH  49  76
ATOM     76  CB  SER A   7      -6.370   5.617  19.820  0.00  0.00    +0.166 C 
BRANCH  76  77
ATOM     77  OG  SER A   7      -6.965   4.311  19.824  0.00  0.00    -0.380 OA
ATOM     78  H   SER A   7      -6.419   3.703  20.383  0.00  0.00    +0.211 HD
ENDBRANCH  76  77
ENDBRANCH  49  76
ENDBRANCH  47  49
ENDBRANCH  44  45
BRANCH  44  79
ATOM     79  CB  SER A   6      -5.655  10.593  21.466  0.00  0.00    +0.166 C 
BRANCH  79  80
ATOM     80  OG  SER A   6      -5.058  11.888  21.544  0.00  0.00    -0.380 OA
ATOM     81  H   SER A   6      -4.883  12.113  22.492  0.00  0.00    +0.211 HD
ENDBRANCH  79  80
ENDBRANCH  44  79
ENDBRANCH  42  44
ENDBRANCH   1  40
BRANCH   1  82
ATOM     82  CB  ASN A   5      -0.323   9.659  20.780  0.00  0.00    +0.114 C 
BRANCH  82  83
ATOM     83  CG  ASN A   5       1.122   9.279  20.474  0.00  0.00    +0.222 C 
ATOM     84  ND2 ASN A   5       2.032  10.241  20.544  0.00  0.00    -0.329 N 
ATOM     85 HD21 ASN A   5       1.748  11.208  20.799  0.00  0.00    +0.145 HD
ATOM     86 HD22 ASN A   5       3.030  10.028  20.344  0.00  0.00    +0.145 HD
ATOM     87  OD1 ASN A   5       1.402   8.135  20.181  0.00  0.00    -0.275 OA
ENDBRANCH  82  83
ENDBRANCH   1  82
TORSDOF 39
REMARK  Name = ../refined-set-2016/4bqg/4bqg_pocket.pdb
REMARK  221 active torsions:
REMARK  status: ('A' for Active; 'I' for Inactive)
REMARK    1  A    between atoms: _1  and  _3
REMARK    2  A    between atoms: _3  and  _4
REMARK    3  A    between atoms: _3  and  _6
REMARK    4  A    between atoms: _6  and  _7
REMARK    5  A    between atoms: _13  and  _15
REMARK    6  A    between atoms: _15  and  _16
REMARK    7  A    between atoms: _15  and  _18
REMARK    8  A    between atoms: _18  and  _19
REMARK    9  A    between atoms: _22  and  _24
REMARK   10  A    between atoms: _24  and  _25
REMARK   11  A    between atoms: _24  and  _27
REMARK   12  A    between atoms: _27  and  _28
REMARK   13  A    between atoms: _28  and  _29
REMARK   14  A    between atoms: _31  and  _33
REMARK   15  A    between atoms: _33  and  _34
REMARK   16  A    between atoms: _33  and  _36
REMARK   17  A    between atoms: _36  and  _37
REMARK   18  A    between atoms: _43  and  _45
REMARK   19  A    between atoms: _45  and  _46
REMARK   20  A    between atoms: _45  and  _48
REMARK   21  A    between atoms: _48  and  _49
REMARK   22  A    between atoms: _52  and  _54
REMARK   23  A    between atoms: _54  and  _55
REMARK   24  A    between atoms: _54  and  _57
REMARK   25  A    between atoms: _57  and  _58
REMARK   26  A    between atoms: _58  and  _59
REMARK   27  A    between atoms: _62  and  _64
REMARK   28  A    between atoms: _64  and  _65
REMARK   29  A    between atoms: _64  and  _67
REMARK   30  A    between atoms: _67  and  _68
REMARK   31  A    between atoms: _71  and  _73
REMARK   32  A    between atoms: _73  and  _74
REMARK   33  A    between atoms: _73  and  _76
REMARK   34  A    between atoms: _76  and  _77
REMARK   35  A    between atoms: _80  and  _82
REMARK   36  A    between atoms: _82  and  _83
REMARK   37  A    between atoms: _82  and  _85
REMARK   38  A    between atoms: _85  and  _86
REMARK   39  A    between atoms: _88  and  _90
REMARK   40  A    between atoms: _90  and  _91
REMARK   41  A    between atoms: _90  and  _93
REMARK   42  A    between atoms: _93  and  _94
REMARK   43  A    between atoms: _99  and  _101
REMARK   44  A    between atoms: _101  and  _102
REMARK   45  A    between atoms: _101  and  _104
REMARK   46  A    between atoms: _104  and  _105
REMARK   47  A    between atoms: _107  and  _109
REMARK   48  A    between atoms: _109  and  _110
REMARK   49  A    between atoms: _109  and  _112
REMARK   50  A    between atoms: _112  and  _113
REMARK   51  A    between atoms: _115  and  _117
REMARK   52  A    between atoms: _117  and  _118
REMARK   53  A    between atoms: _117  and  _120
REMARK   54  A    between atoms: _120  and  _121
REMARK   55  A    between atoms: _124  and  _126
REMARK   56  A    between atoms: _126  and  _127
REMARK   57  A    between atoms: _130  and  _132
REMARK   58  A    between atoms: _132  and  _133
REMARK   59  A    between atoms: _132  and  _135
REMARK   60  A    between atoms: _135  and  _136
REMARK   61  A    between atoms: _139  and  _141
REMARK   62  A    between atoms: _141  and  _142
REMARK   63  A    between atoms: _141  and  _144
REMARK   64  A    between atoms: _144  and  _145
REMARK   65  A    between atoms: _145  and  _146
REMARK   66  A    between atoms: _146  and  _147
REMARK   67  A    between atoms: _147  and  _148
REMARK   68  A    between atoms: _152  and  _154
REMARK   69  A    between atoms: _154  and  _155
REMARK   70  A    between atoms: _154  and  _157
REMARK   71  A    between atoms: _157  and  _158
REMARK   72  A    between atoms: _161  and  _163
REMARK   73  A    between atoms: _163  and  _164
REMARK   74  A    between atoms: _163  and  _166
REMARK   75  A    between atoms: _169  and  _171
REMARK   76  A    between atoms: _171  and  _172
REMARK   77  A    between atoms: _171  and  _174
REMARK   78  A    between atoms: _174  and  _175
REMARK   79  A    between atoms: _178  and  _180
REMARK   80  A    between atoms: _180  and  _181
REMARK   81  A    between atoms: _180  and  _183
REMARK   82  A    between atoms: _183  and  _184
REMARK   83  A    between atoms: _187  and  _189
REMARK   84  A    between atoms: _189  and  _190
REMARK   85  A    between atoms: _192  and  _194
REMARK   86  A    between atoms: _194  and  _195
REMARK   87  A    between atoms: _194  and  _197
REMARK   88  A    between atoms: _197  and  _198
REMARK   89  A    between atoms: _201  and  _203
REMARK   90  A    between atoms: _203  and  _204
REMARK   91  A    between atoms: _206  and  _208
REMARK   92  A    between atoms: _208  and  _209
REMARK   93  A    between atoms: _208  and  _211
REMARK   94  A    between atoms: _211  and  _212
REMARK   95  A    between atoms: _212  and  _213
REMARK   96  A    between atoms: _215  and  _217
REMARK   97  A    between atoms: _217  and  _218
REMARK   98  A    between atoms: _217  and  _220
REMARK   99  A    between atoms: _220  and  _221
REMARK  100  A    between atoms: _224  and  _226
REMARK  101  A    between atoms: _226  and  _227
REMARK  102  A    between atoms: _226  and  _229
REMARK  103  A    between atoms: _229  and  _230
REMARK  104  A    between atoms: _233  and  _235
REMARK  105  A    between atoms: _235  and  _236
REMARK  106  A    between atoms: _235  and  _238
REMARK  107  A    between atoms: _238  and  _239
REMARK  108  A    between atoms: _242  and  _244
REMARK  109  A    between atoms: _244  and  _245
REMARK  110  A    between atoms: _244  and  _247
REMARK  111  A    between atoms: _247  and  _248
REMARK  112  A    between atoms: _253  and  _255
REMARK  113  A    between atoms: _255  and  _256
REMARK  114  A    between atoms: _255  and  _258
REMARK  115  A    between atoms: _258  and  _259
REMARK  116  A    between atoms: _262  and  _264
REMARK  117  A    between atoms: _264  and  _265
REMARK  118  A    between atoms: _267  and  _269
REMARK  119  A    between atoms: _269  and  _270
REMARK  120  A    between atoms: _269  and  _272
REMARK  121  A    between atoms: _272  and  _273
REMARK  122  A    between atoms: _276  and  _278
REMARK  123  A    between atoms: _278  and  _279
REMARK  124  A    between atoms: _282  and  _284
REMARK  125  A    between atoms: _284  and  _285
REMARK  126  A    between atoms: _287  and  _289
REMARK  127  A    between atoms: _289  and  _290
REMARK  128  A    between atoms: _289  and  _292
REMARK  129  A    between atoms: _295  and  _297
REMARK  130  A    between atoms: _297  and  _298
REMARK  131  A    between atoms: _300  and  _302
REMARK  132  A    between atoms: _302  and  _303
REMARK  133  A    between atoms: _302  and  _305
REMARK  134  A    between atoms: _305  and  _306
REMARK  135  A    between atoms: _312  and  _314
REMARK  136  A    between atoms: _314  and  _315
REMARK  137  A    between atoms: _314  and  _317
REMARK  138  A    between atoms: _317  and  _318
REMARK  139  A    between atoms: _323  and  _324
REMARK  140  A    between atoms: _326  and  _328
REMARK  141  A    between atoms: _328  and  _329
REMARK  142  A    between atoms: _328  and  _331
REMARK  143  A    between atoms: _331  and  _332
REMARK  144  A    between atoms: _334  and  _336
REMARK  145  A    between atoms: _336  and  _337
REMARK  146  A    between atoms: _340  and  _342
REMARK  147  A    between atoms: _342  and  _343
REMARK  148  A    between atoms: _342  and  _345
REMARK  149  A    between atoms: _345  and  _346
REMARK  150  A    between atoms: _351  and  _352
REMARK  151  A    between atoms: _354  and  _356
REMARK  152  A    between atoms: _356  and  _357
REMARK  153  A    between atoms: _356  and  _359
REMARK  154  A    between atoms: _362  and  _364
REMARK  155  A    between atoms: _364  and  _365
REMARK  156  A    between atoms: _364  and  _367
REMARK  157  A    between atoms: _367  and  _368
REMARK  158  A    between atoms: _371  and  _373
REMARK  159  A    between atoms: _373  and  _374
REMARK  160  A    between atoms: _373  and  _376
REMARK  161  A    between atoms: _379  and  _381
REMARK  162  A    between atoms: _381  and  _382
REMARK  163  A    between atoms: _381  and  _384
REMARK  164  A    between atoms: _384  and  _385
REMARK  165  A    between atoms: _388  and  _390
REMARK  166  A    between atoms: _390  and  _391
REMARK  167  A    between atoms: _390  and  _393
REMARK  168  A    between atoms: _393  and  _394
REMARK  169  A    between atoms: _397  and  _399
REMARK  170  A    between atoms: _399  and  _400
REMARK  171  A    between atoms: _399  and  _402
REMARK  172  A    between atoms: _402  and  _403
REMARK  173  A    between atoms: _403  and  _404
REMARK  174  A    between atoms: _404  and  _405
REMARK  175  A    between atoms: _405  and  _406
REMARK  176  A    between atoms: _410  and  _412
REMARK  177  A    between atoms: _412  and  _413
REMARK  178  A    between atoms: _416  and  _418
REMARK  179  A    between atoms: _418  and  _419
REMARK  180  A    between atoms: _418  and  _421
REMARK  181  A    between atoms: _421  and  _422
REMARK  182  A    between atoms: _432  and  _434
REMARK  183  A    between atoms: _434  and  _435
REMARK  184  A    between atoms: _434  and  _437
REMARK  185  A    between atoms: _437  and  _438
REMARK  186  A    between atoms: _438  and  _439
REMARK  187  A    between atoms: _442  and  _444
REMARK  188  A    between atoms: _444  and  _445
REMARK  189  A    between atoms: _444  and  _447
REMARK  190  A    between atoms: _447  and  _448
REMARK  191  A    between atoms: _450  and  _452
REMARK  192  A    between atoms: _452  and  _453
REMARK  193  A    between atoms: _452  and  _455
REMARK  194  A    between atoms: _455  and  _456
REMARK  195  A    between atoms: _462  and  _464
REMARK  196  A    between atoms: _464  and  _465
REMARK  197  A    between atoms: _464  and  _467
REMARK  198  A    between atoms: _467  and  _468
REMARK  199  A    between atoms: _471  and  _473
REMARK  200  A    between atoms: _473  and  _474
REMARK  201  A    between atoms: _473  and  _476
REMARK  202  A    between atoms: _479  and  _481
REMARK  203  A    between atoms: _481  and  _482
REMARK  204  A    between atoms: _484  and  _486
REMARK  205  A    between atoms: _486  and  _487
REMARK  206  A    between atoms: _486  and  _489
REMARK  207  A    between atoms: _489  and  _490
REMARK  208  A    between atoms: _493  and  _495
REMARK  209  A    between atoms: _495  and  _496
REMARK  210  A    between atoms: _495  and  _498
REMARK  211  A    between atoms: _498  and  _499
REMARK  212  A    between atoms: _499  and  _500
REMARK  213  A    between atoms: _500  and  _501
REMARK  214  A    between atoms: _501  and  _502
REMARK  215  A    between atoms: _506  and  _508
REMARK  216  A    between atoms: _508  and  _509
REMARK  217  A    between atoms: _508  and  _511
REMARK  218  A    between atoms: _514  and  _516
REMARK  219  A    between atoms: _516  and  _517
REMARK  220  A    between atoms: _516  and  _519
REMARK  221  A    between atoms: _519  and  _520
REMARK                            x       y       z     vdW  Elec       q    Type
REMARK                         _______ _______ _______ _____ _____    ______ ____
ROOT
ATOM      1  CG  LYS A   1      -2.283   2.818  28.023  0.00  0.00    -0.000 C 
ENDROOT
BRANCH   1   2
ATOM      2  CB  LYS A   1      -3.363   3.325  28.963  0.00  0.00    +0.025 C 
BRANCH   2   3
ATOM      3  CA  LYS A   1      -4.645   2.458  28.888  0.00  0.00    +0.133 C 
BRANCH   3   4
ATOM      4  N   LYS A   1      -5.337   2.667  27.632  0.00  0.00    -0.239 NA
ATOM      5  H   LYS A   1      -5.055   3.464  27.027  0.00  0.00    +0.142 HD
ENDBRANCH   3   4
BRANCH   3   6
ATOM      6  C   LYS A   1      -5.549   2.690  30.081  0.00  0.00    +0.224 C 
ATOM      7  O   LYS A   1      -5.603   1.860  30.997  0.00  0.00    -0.287 OA
ENDBRANCH   3   6
ENDBRANCH   2   3
ENDBRANCH   1   2
BRANCH   1   8
ATOM      8  CD  LYS A   1      -1.067   3.729  27.952  0.00  0.00    -0.024 C 
BRANCH   8   9
ATOM      9  CE  LYS A   1      -0.313   3.509  26.628  0.00  0.00    -0.086 C 
BRANCH   9  10
ATOM     10  NZ  LYS A   1       1.012   4.189  26.660  0.00  0.00    +0.380 N 
ATOM     11  HZ1 LYS A   1       1.580   3.802  27.440  0.00  0.00    -0.089 HD
ATOM     12  HZ2 LYS A   1       0.873   5.210  26.804  0.00  0.00    -0.089 HD
ATOM     13  HZ3 LYS A   1       1.504   4.029  25.758  0.00  0.00    -0.089 HD
ENDBRANCH   9  10
ENDBRANCH   8   9
ENDBRANCH   1   8
TORSDOF 7
REMARK  Name = ../refined-set-2016/4bqg/4bqg_pocket.pdb
REMARK  221 active torsions:
REMARK  status: ('A' for Active; 'I' for Inactive)
REMARK    1  A    between atoms: _1  and  _3
REMARK    2  A    between atoms: _3  and  _4
REMARK    3  A    between atoms: _3  and  _6
REMARK    4  A    between atoms: _6  and  _7
REMARK    5  A    between atoms: _13  and  _15
REMARK    6  A    between atoms: _15  and  _16
REMARK    7  A    between atoms: _15  and  _18
REMARK    8  A    between atoms: _18  and  _19
REMARK    9  A    between atoms: _22  and  _24
REMARK   10  A    between atoms: _24  and  _25
REMARK   11  A    between atoms: _24  and  _27
REMARK   12  A    between atoms: _27  and  _28
REMARK   13  A    between atoms: _28  and  _29
REMARK   14  A    between atoms: _31  and  _33
REMARK   15  A    between atoms: _33  and  _34
REMARK   16  A    between atoms: _33  and  _36
REMARK   17  A    between atoms: _36  and  _37
REMARK   18  A    between atoms: _43  and  _45
REMARK   19  A    between atoms: _45  and  _46
REMARK   20  A    between atoms: _45  and  _48
REMARK   21  A    between atoms: _48  and  _49
REMARK   22  A    between atoms: _52  and  _54
REMARK   23  A    between atoms: _54  and  _55
REMARK   24  A    between atoms: _54  and  _57
REMARK   25  A    between atoms: _57  and  _58
REMARK   26  A    between atoms: _58  and  _59
REMARK   27  A    between atoms: _62  and  _64
REMARK   28  A    between atoms: _64  and  _65
REMARK   29  A    between atoms: _64  and  _67
REMARK   30  A    between atoms: _67  and  _68
REMARK   31  A    between atoms: _71  and  _73
REMARK   32  A    between atoms: _73  and  _74
REMARK   33  A    between atoms: _73  and  _76
REMARK   34  A    between atoms: _76  and  _77
REMARK   35  A    between atoms: _80  and  _82
REMARK   36  A    between atoms: _82  and  _83
REMARK   37  A    between atoms: _82  and  _85
REMARK   38  A    between atoms: _85  and  _86
REMARK   39  A    between atoms: _88  and  _90
REMARK   40  A    between atoms: _90  and  _91
REMARK   41  A    between atoms: _90  and  _93
REMARK   42  A    between atoms: _93  and  _94
REMARK   43  A    between atoms: _99  and  _101
REMARK   44  A    between atoms: _101  and  _102
REMARK   45  A    between atoms: _101  and  _104
REMARK   46  A    between atoms: _104  and  _105
REMARK   47  A    between atoms: _107  and  _109
REMARK   48  A    between atoms: _109  and  _110
REMARK   49  A    between atoms: _109  and  _112
REMARK   50  A    between atoms: _112  and  _113
REMARK   51  A    between atoms: _115  and  _117
REMARK   52  A    between atoms: _117  and  _118
REMARK   53  A    between atoms: _117  and  _120
REMARK   54  A    between atoms: _120  and  _121
REMARK   55  A    between atoms: _124  and  _126
REMARK   56  A    between atoms: _126  and  _127
REMARK   57  A    between atoms: _130  and  _132
REMARK   58  A    between atoms: _132  and  _133
REMARK   59  A    between atoms: _132  and  _135
REMARK   60  A    between atoms: _135  and  _136
REMARK   61  A    between atoms: _139  and  _141
REMARK   62  A    between atoms: _141  and  _142
REMARK   63  A    between atoms: _141  and  _144
REMARK   64  A    between atoms: _144  and  _145
REMARK   65  A    between atoms: _145  and  _146
REMARK   66  A    between atoms: _146  and  _147
REMARK   67  A    between atoms: _147  and  _148
REMARK   68  A    between atoms: _152  and  _154
REMARK   69  A    between atoms: _154  and  _155
REMARK   70  A    between atoms: _154  and  _157
REMARK   71  A    between atoms: _157  and  _158
REMARK   72  A    between atoms: _161  and  _163
REMARK   73  A    between atoms: _163  and  _164
REMARK   74  A    between atoms: _163  and  _166
REMARK   75  A    between atoms: _169  and  _171
REMARK   76  A    between atoms: _171  and  _172
REMARK   77  A    between atoms: _171  and  _174
REMARK   78  A    between atoms: _174  and  _175
REMARK   79  A    between atoms: _178  and  _180
REMARK   80  A    between atoms: _180  and  _181
REMARK   81  A    between atoms: _180  and  _183
REMARK   82  A    between atoms: _183  and  _184
REMARK   83  A    between atoms: _187  and  _189
REMARK   84  A    between atoms: _189  and  _190
REMARK   85  A    between atoms: _192  and  _194
REMARK   86  A    between atoms: _194  and  _195
REMARK   87  A    between atoms: _194  and  _197
REMARK   88  A    between atoms: _197  and  _198
REMARK   89  A    between atoms: _201  and  _203
REMARK   90  A    between atoms: _203  and  _204
REMARK   91  A    between atoms: _206  and  _208
REMARK   92  A    between atoms: _208  and  _209
REMARK   93  A    between atoms: _208  and  _211
REMARK   94  A    between atoms: _211  and  _212
REMARK   95  A    between atoms: _212  and  _213
REMARK   96  A    between atoms: _215  and  _217
REMARK   97  A    between atoms: _217  and  _218
REMARK   98  A    between atoms: _217  and  _220
REMARK   99  A    between atoms: _220  and  _221
REMARK  100  A    between atoms: _224  and  _226
REMARK  101  A    between atoms: _226  and  _227
REMARK  102  A    between atoms: _226  and  _229
REMARK  103  A    between atoms: _229  and  _230
REMARK  104  A    between atoms: _233  and  _235
REMARK  105  A    between atoms: _235  and  _236
REMARK  106  A    between atoms: _235  and  _238
REMARK  107  A    between atoms: _238  and  _239
REMARK  108  A    between atoms: _242  and  _244
REMARK  109  A    between atoms: _244  and  _245
REMARK  110  A    between atoms: _244  and  _247
REMARK  111  A    between atoms: _247  and  _248
REMARK  112  A    between atoms: _253  and  _255
REMARK  113  A    between atoms: _255  and  _256
REMARK  114  A    between atoms: _255  and  _258
REMARK  115  A    between atoms: _258  and  _259
REMARK  116  A    between atoms: _262  and  _264
REMARK  117  A    between atoms: _264  and  _265
REMARK  118  A    between atoms: _267  and  _269
REMARK  119  A    between atoms: _269  and  _270
REMARK  120  A    between atoms: _269  and  _272
REMARK  121  A    between atoms: _272  and  _273
REMARK  122  A    between atoms: _276  and  _278
REMARK  123  A    between atoms: _278  and  _279
REMARK  124  A    between atoms: _282  and  _284
REMARK  125  A    between atoms: _284  and  _285
REMARK  126  A    between atoms: _287  and  _289
REMARK  127  A    between atoms: _289  and  _290
REMARK  128  A    between atoms: _289  and  _292
REMARK  129  A    between atoms: _295  and  _297
REMARK  130  A    between atoms: _297  and  _298
REMARK  131  A    between atoms: _300  and  _302
REMARK  132  A    between atoms: _302  and  _303
REMARK  133  A    between atoms: _302  and  _305
REMARK  134  A    between atoms: _305  and  _306
REMARK  135  A    between atoms: _312  and  _314
REMARK  136  A    between atoms: _314  and  _315
REMARK  137  A    between atoms: _314  and  _317
REMARK  138  A    between atoms: _317  and  _318
REMARK  139  A    between atoms: _323  and  _324
REMARK  140  A    between atoms: _326  and  _328
REMARK  141  A    between atoms: _328  and  _329
REMARK  142  A    between atoms: _328  and  _331
REMARK  143  A    between atoms: _331  and  _332
REMARK  144  A    between atoms: _334  and  _336
REMARK  145  A    between atoms: _336  and  _337
REMARK  146  A    between atoms: _340  and  _342
REMARK  147  A    between atoms: _342  and  _343
REMARK  148  A    between atoms: _342  and  _345
REMARK  149  A    between atoms: _345  and  _346
REMARK  150  A    between atoms: _351  and  _352
REMARK  151  A    between atoms: _354  and  _356
REMARK  152  A    between atoms: _356  and  _357
REMARK  153  A    between atoms: _356  and  _359
REMARK  154  A    between atoms: _362  and  _364
REMARK  155  A    between atoms: _364  and  _365
REMARK  156  A    between atoms: _364  and  _367
REMARK  157  A    between atoms: _367  and  _368
REMARK  158  A    between atoms: _371  and  _373
REMARK  159  A    between atoms: _373  and  _374
REMARK  160  A    between atoms: _373  and  _376
REMARK  161  A    between atoms: _379  and  _381
REMARK  162  A    between atoms: _381  and  _382
REMARK  163  A    between atoms: _381  and  _384
REMARK  164  A    between atoms: _384  and  _385
REMARK  165  A    between atoms: _388  and  _390
REMARK  166  A    between atoms: _390  and  _391
REMARK  167  A    between atoms: _390  and  _393
REMARK  168  A    between atoms: _393  and  _394
REMARK  169  A    between atoms: _397  and  _399
REMARK  170  A    between atoms: _399  and  _400
REMARK  171  A    between atoms: _399  and  _402
REMARK  172  A    between atoms: _402  and  _403
REMARK  173  A    between atoms: _403  and  _404
REMARK  174  A    between atoms: _404  and  _405
REMARK  175  A    between atoms: _405  and  _406
REMARK  176  A    between atoms: _410  and  _412
REMARK  177  A    between atoms: _412  and  _413
REMARK  178  A    between atoms: _416  and  _418
REMARK  179  A    between atoms: _418  and  _419
REMARK  180  A    between atoms: _418  and  _421
REMARK  181  A    between atoms: _421  and  _422
REMARK  182  A    between atoms: _432  and  _434
REMARK  183  A    between atoms: _434  and  _435
REMARK  184  A    between atoms: _434  and  _437
REMARK  185  A    between atoms: _437  and  _438
REMARK  186  A    between atoms: _438  and  _439
REMARK  187  A    between atoms: _442  and  _444
REMARK  188  A    between atoms: _444  and  _445
REMARK  189  A    between atoms: _444  and  _447
REMARK  190  A    between atoms: _447  and  _448
REMARK  191  A    between atoms: _450  and  _452
REMARK  192  A    between atoms: _452  and  _453
REMARK  193  A    between atoms: _452  and  _455
REMARK  194  A    between atoms: _455  and  _456
REMARK  195  A    between atoms: _462  and  _464
REMARK  196  A    between atoms: _464  and  _465
REMARK  197  A    between atoms: _464  and  _467
REMARK  198  A    between atoms: _467  and  _468
REMARK  199  A    between atoms: _471  and  _473
REMARK  200  A    between atoms: _473  and  _474
REMARK  201  A    between atoms: _473  and  _476
REMARK  202  A    between atoms: _479  and  _481
REMARK  203  A    between atoms: _481  and  _482
REMARK  204  A    between atoms: _484  and  _486
REMARK  205  A    between atoms: _486  and  _487
REMARK  206  A    between atoms: _486  and  _489
REMARK  207  A    between atoms: _489  and  _490
REMARK  208  A    between atoms: _493  and  _495
REMARK  209  A    between atoms: _495  and  _496
REMARK  210  A    between atoms: _495  and  _498
REMARK  211  A    between atoms: _498  and  _499
REMARK  212  A    between atoms: _499  and  _500
REMARK  213  A    between atoms: _500  and  _501
REMARK  214  A    between atoms: _501  and  _502
REMARK  215  A    between atoms: _506  and  _508
REMARK  216  A    between atoms: _508  and  _509
REMARK  217  A    between atoms: _508  and  _511
REMARK  218  A    between atoms: _514  and  _516
REMARK  219  A    between atoms: _516  and  _517
REMARK  220  A    between atoms: _516  and  _519
REMARK  221  A    between atoms: _519  and  _520
REMARK                            x       y       z     vdW  Elec       q    Type
REMARK                         _______ _______ _______ _____ _____    ______ ____
ROOT
ATOM      1  CA  THR A   4      -9.701  11.796  28.060  0.00  0.00    +0.176 C 
ENDROOT
BRANCH   1   4
ATOM      2  C   ASP A   3      -8.593  13.002  26.235  0.00  0.00    +0.241 C 
ATOM      3  O   ASP A   3      -8.026  13.758  27.010  0.00  0.00    -0.273 OA
ATOM      4  N   THR A   4      -9.457  12.075  26.629  0.00  0.00    -0.295 N 
ATOM      5  H   THR A   4      -9.977  11.530  25.912  0.00  0.00    +0.150 HD
BRANCH   2   6
ATOM      6  CA  ASP A   3      -8.349  13.119  24.734  0.00  0.00    +0.160 C 
BRANCH   6   8
ATOM      7  C   VAL A   2      -8.459  15.157  23.439  0.00  0.00    +0.241 C 
ATOM      8  N   ASP A   3      -7.886  14.448  24.409  0.00  0.00    -0.297 N 
ATOM      9  H   ASP A   3      -7.092  14.858  24.941  0.00  0.00    +0.150 HD
ATOM     10  O   VAL A   2      -9.307  14.693  22.675  0.00  0.00    -0.273 OA
BRANCH   7  11
ATOM     11  CA  VAL A   2      -8.041  16.615  23.324  0.00  0.00    +0.148 C 
BRANCH  11  14
ATOM     12  C   ILE A   1      -6.496  17.258  21.526  0.00  0.00    +0.238 C 
ATOM     13  O   ILE A   1      -5.511  17.315  22.277  0.00  0.00    -0.274 OA
ATOM     14  N   VAL A   2      -7.719  16.895  21.926  0.00  0.00    -0.297 N 
ATOM     15  H   VAL A   2      -8.472  16.808  21.214  0.00  0.00    +0.150 HD
BRANCH  12  16
ATOM     16  CA  ILE A   1      -6.337  17.583  20.050  0.00  0.00    +0.145 C 
BRANCH  16  17
ATOM     17  N   ILE A   1      -5.858  18.963  19.966  0.00  0.00    -0.238 NA
ATOM     18  H   ILE A   1      -4.889  19.180  20.277  0.00  0.00    +0.142 HD
ENDBRANCH  16  17
BRANCH  16  19
ATOM     19  CB  ILE A   1      -5.368  16.550  19.389  0.00  0.00    +0.025 C 
ATOM     20  CG2 ILE A   1      -5.910  15.117  19.590  0.00  0.00    +0.002 C 
BRANCH  19  21
ATOM     21  CG1 ILE A   1      -5.200  16.845  17.885  0.00  0.00    +0.002 C 
ATOM     22  CD1 ILE A   1      -3.970  17.664  17.548  0.00  0.00    +0.000 C 
ENDBRANCH  19  21
ENDBRANCH  16  19
ENDBRANCH  12  16
ENDBRANCH  11  14
BRANCH  11  23
ATOM     23  CB  VAL A   2      -9.241  17.445  23.859  0.00  0.00    +0.027 C 
ATOM     24  CG2 VAL A   2      -9.373  17.262  25.375  0.00  0.00    +0.002 C 
ATOM     25  CG1 VAL A   2      -9.055  18.925  23.580  0.00  0.00    +0.002 C 
ENDBRANCH  11  23
ENDBRANCH   7  11
ENDBRANCH   6   8
BRANCH   6  26
ATOM     26  CB  ASP A   3      -7.380  12.027  24.207  0.00  0.00    +0.143 C 
BRANCH  26  27
ATOM     27  CG  ASP A   3      -6.064  11.964  24.954  0.00  0.00    +0.367 C 
ATOM     28  OD2 ASP A   3      -6.069  11.622  26.169  0.00  0.00    -0.246 OA
ATOM     29  OD1 ASP A   3      -4.993  12.189  24.322  0.00  0.00    -0.246 OA
ENDBRANCH  26  27
ENDBRANCH   6  26
ENDBRANCH   2   6
ENDBRANCH   1   4
BRANCH   1  30
ATOM     30  C   THR A   4      -9.032  10.472  28.457  0.00  0.00    +0.243 C 
ATOM     31  O   THR A   4      -9.611   9.648  29.175  0.00  0.00    -0.273 OA
ATOM     32  N   GLY A   5      -7.808  10.284  27.969  0.00  0.00    -0.295 N 
ATOM     33  H   GLY A   5      -7.367  11.035  27.400  0.00  0.00    +0.150 HD
BRANCH  32  34
ATOM     34  CA  GLY A   5      -7.066   9.040  28.216  0.00  0.00    +0.176 C 
BRANCH  34  35
ATOM     35  C   GLY A   5      -6.385   9.095  29.577  0.00  0.00    +0.243 C 
ATOM     36  O   GLY A   5      -6.751   9.886  30.445  0.00  0.00    -0.273 OA
ATOM     37  N   ILE A   6      -5.386   8.240  29.757  0.00  0.00    -0.297 N 
ATOM     38  H   ILE A   6      -5.032   7.692  28.947  0.00  0.00    +0.150 HD
BRANCH  37  39
ATOM     39  CA  ILE A   6      -4.775   8.053  31.068  0.00  0.00    +0.149 C 
BRANCH  39  40
ATOM     40  C   ILE A   6      -4.025   9.310  31.581  0.00  0.00    +0.241 C 
ATOM     41  O   ILE A   6      -3.942   9.520  32.808  0.00  0.00    -0.273 OA
ATOM     42  N   GLY A   7      -3.527  10.153  30.673  0.00  0.00    -0.295 N 
ATOM     43  H   GLY A   7      -3.647   9.944  29.661  0.00  0.00    +0.150 HD
BRANCH  42  44
ATOM     44  CA  GLY A   7      -2.809  11.376  31.080  0.00  0.00    +0.176 C 
BRANCH  44  45
ATOM     45  C   GLY A   7      -1.358  11.034  31.445  0.00  0.00    +0.243 C 
ATOM     46  N   MET A   8      -0.577  12.040  31.825  0.00  0.00    -0.298 N 
ATOM     47  H   MET A   8      -0.962  13.005  31.876  0.00  0.00    +0.150 HD
ATOM     48  O   GLY A   7      -0.932   9.873  31.393  0.00  0.00    -0.273 OA
BRANCH  46  49
ATOM     49  CA  MET A   8       0.810  11.795  32.169  0.00  0.00    +0.138 C 
BRANCH  49  50
ATOM     50  C   MET A   8       1.224  12.527  33.456  0.00  0.00    +0.227 C 
ATOM     51  O   MET A   8       0.789  13.637  33.725  0.00  0.00    -0.286 OA
ENDBRANCH  49  50
BRANCH  49  52
ATOM     52  CB  MET A   8       1.706  12.148  31.005  0.00  0.00    +0.039 C 
BRANCH  52  53
ATOM     53  CG  MET A   8       1.314  11.416  29.715  0.00  0.00    +0.060 C 
BRANCH  53  54
ATOM     54  SD  MET A   8       2.124  12.279  28.381  0.00  0.00    -0.139 S 
ATOM     55  CE  MET A   8       0.857  13.439  27.869  0.00  0.00    +0.069 C 
ENDBRANCH  53  54
ENDBRANCH  52  53
ENDBRANCH  49  52
ENDBRANCH  46  49
ENDBRANCH  44  45
ENDBRANCH  42  44
ENDBRANCH  39  40
BRANCH  39  56
ATOM     56  CB  ILE A   6      -3.857   6.806  31.078  0.00  0.00    +0.027 C 
ATOM     57  CG2 ILE A   6      -2.647   7.022  30.165  0.00  0.00    +0.002 C 
BRANCH  56  58
ATOM     58  CG1 ILE A   6      -3.491   6.404  32.515  0.00  0.00    +0.002 C 
ATOM     59  CD1 ILE A   6      -3.210   4.912  32.688  0.00  0.00    +0.000 C 
ENDBRANCH  56  58
ENDBRANCH  39  56
ENDBRANCH  37  39
ENDBRANCH  34  35
ENDBRANCH  32  34
ENDBRANCH   1  30
BRANCH   1  60
ATOM     60  CB  THR A   4     -11.199  11.813  28.367  0.00  0.00    +0.137 C 
ATOM     61  CG2 THR A   4     -11.742  13.267  28.155  0.00  0.00    +0.034 C 
BRANCH  60  62
ATOM     62  OG1 THR A   4     -11.891  10.902  27.476  0.00  0.00    -0.382 OA
ATOM     63  HG1 THR A   4     -12.860  10.917  27.679  0.00  0.00    +0.210 HD
ENDBRANCH  60  62
ENDBRANCH   1  60
TORSDOF 28
REMARK  Name = ../refined-set-2016/4bqg/4bqg_pocket.pdb
REMARK  221 active torsions:
REMARK  status: ('A' for Active; 'I' for Inactive)
REMARK    1  A    between atoms: _1  and  _3
REMARK    2  A    between atoms: _3  and  _4
REMARK    3  A    between atoms: _3  and  _6
REMARK    4  A    between atoms: _6  and  _7
REMARK    5  A    between atoms: _13  and  _15
REMARK    6  A    between atoms: _15  and  _16
REMARK    7  A    between atoms: _15  and  _18
REMARK    8  A    between atoms: _18  and  _19
REMARK    9  A    between atoms: _22  and  _24
REMARK   10  A    between atoms: _24  and  _25
REMARK   11  A    between atoms: _24  and  _27
REMARK   12  A    between atoms: _27  and  _28
REMARK   13  A    between atoms: _28  and  _29
REMARK   14  A    between atoms: _31  and  _33
REMARK   15  A    between atoms: _33  and  _34
REMARK   16  A    between atoms: _33  and  _36
REMARK   17  A    between atoms: _36  and  _37
REMARK   18  A    between atoms: _43  and  _45
REMARK   19  A    between atoms: _45  and  _46
REMARK   20  A    between atoms: _45  and  _48
REMARK   21  A    between atoms: _48  and  _49
REMARK   22  A    between atoms: _52  and  _54
REMARK   23  A    between atoms: _54  and  _55
REMARK   24  A    between atoms: _54  and  _57
REMARK   25  A    between atoms: _57  and  _58
REMARK   26  A    between atoms: _58  and  _59
REMARK   27  A    between atoms: _62  and  _64
REMARK   28  A    between atoms: _64  and  _65
REMARK   29  A    between atoms: _64  and  _67
REMARK   30  A    between atoms: _67  and  _68
REMARK   31  A    between atoms: _71  and  _73
REMARK   32  A    between atoms: _73  and  _74
REMARK   33  A    between atoms: _73  and  _76
REMARK   34  A    between atoms: _76  and  _77
REMARK   35  A    between atoms: _80  and  _82
REMARK   36  A    between atoms: _82  and  _83
REMARK   37  A    between atoms: _82  and  _85
REMARK   38  A    between atoms: _85  and  _86
REMARK   39  A    between atoms: _88  and  _90
REMARK   40  A    between atoms: _90  and  _91
REMARK   41  A    between atoms: _90  and  _93
REMARK   42  A    between atoms: _93  and  _94
REMARK   43  A    between atoms: _99  and  _101
REMARK   44  A    between atoms: _101  and  _102
REMARK   45  A    between atoms: _101  and  _104
REMARK   46  A    between atoms: _104  and  _105
REMARK   47  A    between atoms: _107  and  _109
REMARK   48  A    between atoms: _109  and  _110
REMARK   49  A    between atoms: _109  and  _112
REMARK   50  A    between atoms: _112  and  _113
REMARK   51  A    between atoms: _115  and  _117
REMARK   52  A    between atoms: _117  and  _118
REMARK   53  A    between atoms: _117  and  _120
REMARK   54  A    between atoms: _120  and  _121
REMARK   55  A    between atoms: _124  and  _126
REMARK   56  A    between atoms: _126  and  _127
REMARK   57  A    between atoms: _130  and  _132
REMARK   58  A    between atoms: _132  and  _133
REMARK   59  A    between atoms: _132  and  _135
REMARK   60  A    between atoms: _135  and  _136
REMARK   61  A    between atoms: _139  and  _141
REMARK   62  A    between atoms: _141  and  _142
REMARK   63  A    between atoms: _141  and  _144
REMARK   64  A    between atoms: _144  and  _145
REMARK   65  A    between atoms: _145  and  _146
REMARK   66  A    between atoms: _146  and  _147
REMARK   67  A    between atoms: _147  and  _148
REMARK   68  A    between atoms: _152  and  _154
REMARK   69  A    between atoms: _154  and  _155
REMARK   70  A    between atoms: _154  and  _157
REMARK   71  A    between atoms: _157  and  _158
REMARK   72  A    between atoms: _161  and  _163
REMARK   73  A    between atoms: _163  and  _164
REMARK   74  A    between atoms: _163  and  _166
REMARK   75  A    between atoms: _169  and  _171
REMARK   76  A    between atoms: _171  and  _172
REMARK   77  A    between atoms: _171  and  _174
REMARK   78  A    between atoms: _174  and  _175
REMARK   79  A    between atoms: _178  and  _180
REMARK   80  A    between atoms: _180  and  _181
REMARK   81  A    between atoms: _180  and  _183
REMARK   82  A    between atoms: _183  and  _184
REMARK   83  A    between atoms: _187  and  _189
REMARK   84  A    between atoms: _189  and  _190
REMARK   85  A    between atoms: _192  and  _194
REMARK   86  A    between atoms: _194  and  _195
REMARK   87  A    between atoms: _194  and  _197
REMARK   88  A    between atoms: _197  and  _198
REMARK   89  A    between atoms: _201  and  _203
REMARK   90  A    between atoms: _203  and  _204
REMARK   91  A    between atoms: _206  and  _208
REMARK   92  A    between atoms: _208  and  _209
REMARK   93  A    between atoms: _208  and  _211
REMARK   94  A    between atoms: _211  and  _212
REMARK   95  A    between atoms: _212  and  _213
REMARK   96  A    between atoms: _215  and  _217
REMARK   97  A    between atoms: _217  and  _218
REMARK   98  A    between atoms: _217  and  _220
REMARK   99  A    between atoms: _220  and  _221
REMARK  100  A    between atoms: _224  and  _226
REMARK  101  A    between atoms: _226  and  _227
REMARK  102  A    between atoms: _226  and  _229
REMARK  103  A    between atoms: _229  and  _230
REMARK  104  A    between atoms: _233  and  _235
REMARK  105  A    between atoms: _235  and  _236
REMARK  106  A    between atoms: _235  and  _238
REMARK  107  A    between atoms: _238  and  _239
REMARK  108  A    between atoms: _242  and  _244
REMARK  109  A    between atoms: _244  and  _245
REMARK  110  A    between atoms: _244  and  _247
REMARK  111  A    between atoms: _247  and  _248
REMARK  112  A    between atoms: _253  and  _255
REMARK  113  A    between atoms: _255  and  _256
REMARK  114  A    between atoms: _255  and  _258
REMARK  115  A    between atoms: _258  and  _259
REMARK  116  A    between atoms: _262  and  _264
REMARK  117  A    between atoms: _264  and  _265
REMARK  118  A    between atoms: _267  and  _269
REMARK  119  A    between atoms: _269  and  _270
REMARK  120  A    between atoms: _269  and  _272
REMARK  121  A    between atoms: _272  and  _273
REMARK  122  A    between atoms: _276  and  _278
REMARK  123  A    between atoms: _278  and  _279
REMARK  124  A    between atoms: _282  and  _284
REMARK  125  A    between atoms: _284  and  _285
REMARK  126  A    between atoms: _287  and  _289
REMARK  127  A    between atoms: _289  and  _290
REMARK  128  A    between atoms: _289  and  _292
REMARK  129  A    between atoms: _295  and  _297
REMARK  130  A    between atoms: _297  and  _298
REMARK  131  A    between atoms: _300  and  _302
REMARK  132  A    between atoms: _302  and  _303
REMARK  133  A    between atoms: _302  and  _305
REMARK  134  A    between atoms: _305  and  _306
REMARK  135  A    between atoms: _312  and  _314
REMARK  136  A    between atoms: _314  and  _315
REMARK  137  A    between atoms: _314  and  _317
REMARK  138  A    between atoms: _317  and  _318
REMARK  139  A    between atoms: _323  and  _324
REMARK  140  A    between atoms: _326  and  _328
REMARK  141  A    between atoms: _328  and  _329
REMARK  142  A    between atoms: _328  and  _331
REMARK  143  A    between atoms: _331  and  _332
REMARK  144  A    between atoms: _334  and  _336
REMARK  145  A    between atoms: _336  and  _337
REMARK  146  A    between atoms: _340  and  _342
REMARK  147  A    between atoms: _342  and  _343
REMARK  148  A    between atoms: _342  and  _345
REMARK  149  A    between atoms: _345  and  _346
REMARK  150  A    between atoms: _351  and  _352
REMARK  151  A    between atoms: _354  and  _356
REMARK  152  A    between atoms: _356  and  _357
REMARK  153  A    between atoms: _356  and  _359
REMARK  154  A    between atoms: _362  and  _364
REMARK  155  A    between atoms: _364  and  _365
REMARK  156  A    between atoms: _364  and  _367
REMARK  157  A    between atoms: _367  and  _368
REMARK  158  A    between atoms: _371  and  _373
REMARK  159  A    between atoms: _373  and  _374
REMARK  160  A    between atoms: _373  and  _376
REMARK  161  A    between atoms: _379  and  _381
REMARK  162  A    between atoms: _381  and  _382
REMARK  163  A    between atoms: _381  and  _384
REMARK  164  A    between atoms: _384  and  _385
REMARK  165  A    between atoms: _388  and  _390
REMARK  166  A    between atoms: _390  and  _391
REMARK  167  A    between atoms: _390  and  _393
REMARK  168  A    between atoms: _393  and  _394
REMARK  169  A    between atoms: _397  and  _399
REMARK  170  A    between atoms: _399  and  _400
REMARK  171  A    between atoms: _399  and  _402
REMARK  172  A    between atoms: _402  and  _403
REMARK  173  A    between atoms: _403  and  _404
REMARK  174  A    between atoms: _404  and  _405
REMARK  175  A    between atoms: _405  and  _406
REMARK  176  A    between atoms: _410  and  _412
REMARK  177  A    between atoms: _412  and  _413
REMARK  178  A    between atoms: _416  and  _418
REMARK  179  A    between atoms: _418  and  _419
REMARK  180  A    between atoms: _418  and  _421
REMARK  181  A    between atoms: _421  and  _422
REMARK  182  A    between atoms: _432  and  _434
REMARK  183  A    between atoms: _434  and  _435
REMARK  184  A    between atoms: _434  and  _437
REMARK  185  A    between atoms: _437  and  _438
REMARK  186  A    between atoms: _438  and  _439
REMARK  187  A    between atoms: _442  and  _444
REMARK  188  A    between atoms: _444  and  _445
REMARK  189  A    between atoms: _444  and  _447
REMARK  190  A    between atoms: _447  and  _448
REMARK  191  A    between atoms: _450  and  _452
REMARK  192  A    between atoms: _452  and  _453
REMARK  193  A    between atoms: _452  and  _455
REMARK  194  A    between atoms: _455  and  _456
REMARK  195  A    between atoms: _462  and  _464
REMARK  196  A    between atoms: _464  and  _465
REMARK  197  A    between atoms: _464  and  _467
REMARK  198  A    between atoms: _467  and  _468
REMARK  199  A    between atoms: _471  and  _473
REMARK  200  A    between atoms: _473  and  _474
REMARK  201  A    between atoms: _473  and  _476
REMARK  202  A    between atoms: _479  and  _481
REMARK  203  A    between atoms: _481  and  _482
REMARK  204  A    between atoms: _484  and  _486
REMARK  205  A    between atoms: _486  and  _487
REMARK  206  A    between atoms: _486  and  _489
REMARK  207  A    between atoms: _489  and  _490
REMARK  208  A    between atoms: _493  and  _495
REMARK  209  A    between atoms: _495  and  _496
REMARK  210  A    between atoms: _495  and  _498
REMARK  211  A    between atoms: _498  and  _499
REMARK  212  A    between atoms: _499  and  _500
REMARK  213  A    between atoms: _500  and  _501
REMARK  214  A    between atoms: _501  and  _502
REMARK  215  A    between atoms: _506  and  _508
REMARK  216  A    between atoms: _508  and  _509
REMARK  217  A    between atoms: _508  and  _511
REMARK  218  A    between atoms: _514  and  _516
REMARK  219  A    between atoms: _516  and  _517
REMARK  220  A    between atoms: _516  and  _519
REMARK  221  A    between atoms: _519  and  _520
REMARK                            x       y       z     vdW  Elec       q    Type
REMARK                         _______ _______ _______ _____ _____    ______ ____
ROOT
ATOM      1  CA  LEU A   2       6.886  14.414  31.077  0.00  0.00    +0.149 C 
ENDROOT
BRANCH   1   3
ATOM      2  C   ASP A   1       6.991  12.009  31.627  0.00  0.00    +0.239 C 
ATOM      3  N   LEU A   2       6.538  13.244  31.887  0.00  0.00    -0.297 N 
ATOM      4  H   LEU A   2       5.909  13.378  32.704  0.00  0.00    +0.150 HD
ATOM      5  O   ASP A   1       7.789  11.755  30.705  0.00  0.00    -0.274 OA
BRANCH   2   6
ATOM      6  CA  ASP A   1       6.442  10.880  32.533  0.00  0.00    +0.156 C 
BRANCH   6   7
ATOM      7  N   ASP A   1       6.637  11.217  33.947  0.00  0.00    -0.238 NA
ATOM      8  H   ASP A   1       5.817  11.219  34.586  0.00  0.00    +0.142 HD
ENDBRANCH   6   7
BRANCH   6   9
ATOM      9  CB  ASP A   1       4.957  10.697  32.223  0.00  0.00    +0.140 C 
BRANCH   9  10
ATOM     10  CG  ASP A   1       4.384   9.390  32.733  0.00  0.00    +0.367 C 
ATOM     11  OD2 ASP A   1       3.156   9.393  32.995  0.00  0.00    -0.246 OA
ATOM     12  OD1 ASP A   1       5.118   8.363  32.849  0.00  0.00    -0.246 OA
ENDBRANCH   9  10
ENDBRANCH   6   9
ENDBRANCH   2   6
ENDBRANCH   1   3
BRANCH   1  13
ATOM     13  C   LEU A   2       8.377  14.713  31.086  0.00  0.00    +0.241 C 
ATOM     14  N   ILE A   3       9.000  14.668  32.268  0.00  0.00    -0.298 N 
ATOM     15  H   ILE A   3       8.463  14.383  33.112  0.00  0.00    +0.150 HD
ATOM     16  O   LEU A   2       8.953  14.988  30.043  0.00  0.00    -0.273 OA
BRANCH  14  17
ATOM     17  CA  ILE A   3      10.431  15.012  32.408  0.00  0.00    +0.137 C 
BRANCH  17  18
ATOM     18  CB  ILE A   3      10.725  15.511  33.858  0.00  0.00    +0.026 C 
ATOM     19  CG2 ILE A   3      12.209  15.556  34.163  0.00  0.00    +0.002 C 
BRANCH  18  20
ATOM     20  CG1 ILE A   3      10.085  16.884  34.054  0.00  0.00    +0.002 C 
ATOM     21  CD1 ILE A   3      10.072  17.355  35.499  0.00  0.00    +0.000 C 
ENDBRANCH  18  20
ENDBRANCH  17  18
BRANCH  17  22
ATOM     22  C   ILE A   3      11.374  13.865  32.022  0.00  0.00    +0.227 C 
ATOM     23  O   ILE A   3      12.386  14.094  31.365  0.00  0.00    -0.286 OA
ENDBRANCH  17  22
ENDBRANCH  14  17
ENDBRANCH   1  13
BRANCH   1  24
ATOM     24  CB  LEU A   2       6.109  15.664  31.530  0.00  0.00    +0.029 C 
BRANCH  24  25
ATOM     25  CG  LEU A   2       4.608  15.615  31.233  0.00  0.00    +0.002 C 
ATOM     26  CD2 LEU A   2       3.902  16.781  31.899  0.00  0.00    +0.000 C 
ATOM     27  CD1 LEU A   2       4.316  15.572  29.728  0.00  0.00    +0.000 C 
ENDBRANCH  24  25
ENDBRANCH   1  24
TORSDOF 12
REMARK  Name = ../refined-set-2016/4bqg/4bqg_pocket.pdb
REMARK  221 active torsions:
REMARK  status: ('A' for Active; 'I' for Inactive)
REMARK    1  A    between atoms: _1  and  _3
REMARK    2  A    between atoms: _3  and  _4
REMARK    3  A    between atoms: _3  and  _6
REMARK    4  A    between atoms: _6  and  _7
REMARK    5  A    between atoms: _13  and  _15
REMARK    6  A    between atoms: _15  and  _16
REMARK    7  A    between atoms: _15  and  _18
REMARK    8  A    between atoms: _18  and  _19
REMARK    9  A    between atoms: _22  and  _24
REMARK   10  A    between atoms: _24  and  _25
REMARK   11  A    between atoms: _24  and  _27
REMARK   12  A    between atoms: _27  and  _28
REMARK   13  A    between atoms: _28  and  _29
REMARK   14  A    between atoms: _31  and  _33
REMARK   15  A    between atoms: _33  and  _34
REMARK   16  A    between atoms: _33  and  _36
REMARK   17  A    between atoms: _36  and  _37
REMARK   18  A    between atoms: _43  and  _45
REMARK   19  A    between atoms: _45  and  _46
REMARK   20  A    between atoms: _45  and  _48
REMARK   21  A    between atoms: _48  and  _49
REMARK   22  A    between atoms: _52  and  _54
REMARK   23  A    between atoms: _54  and  _55
REMARK   24  A    between atoms: _54  and  _57
REMARK   25  A    between atoms: _57  and  _58
REMARK   26  A    between atoms: _58  and  _59
REMARK   27  A    between atoms: _62  and  _64
REMARK   28  A    between atoms: _64  and  _65
REMARK   29  A    between atoms: _64  and  _67
REMARK   30  A    between atoms: _67  and  _68
REMARK   31  A    between atoms: _71  and  _73
REMARK   32  A    between atoms: _73  and  _74
REMARK   33  A    between atoms: _73  and  _76
REMARK   34  A    between atoms: _76  and  _77
REMARK   35  A    between atoms: _80  and  _82
REMARK   36  A    between atoms: _82  and  _83
REMARK   37  A    between atoms: _82  and  _85
REMARK   38  A    between atoms: _85  and  _86
REMARK   39  A    between atoms: _88  and  _90
REMARK   40  A    between atoms: _90  and  _91
REMARK   41  A    between atoms: _90  and  _93
REMARK   42  A    between atoms: _93  and  _94
REMARK   43  A    between atoms: _99  and  _101
REMARK   44  A    between atoms: _101  and  _102
REMARK   45  A    between atoms: _101  and  _104
REMARK   46  A    between atoms: _104  and  _105
REMARK   47  A    between atoms: _107  and  _109
REMARK   48  A    between atoms: _109  and  _110
REMARK   49  A    between atoms: _109  and  _112
REMARK   50  A    between atoms: _112  and  _113
REMARK   51  A    between atoms: _115  and  _117
REMARK   52  A    between atoms: _117  and  _118
REMARK   53  A    between atoms: _117  and  _120
REMARK   54  A    between atoms: _120  and  _121
REMARK   55  A    between atoms: _124  and  _126
REMARK   56  A    between atoms: _126  and  _127
REMARK   57  A    between atoms: _130  and  _132
REMARK   58  A    between atoms: _132  and  _133
REMARK   59  A    between atoms: _132  and  _135
REMARK   60  A    between atoms: _135  and  _136
REMARK   61  A    between atoms: _139  and  _141
REMARK   62  A    between atoms: _141  and  _142
REMARK   63  A    between atoms: _141  and  _144
REMARK   64  A    between atoms: _144  and  _145
REMARK   65  A    between atoms: _145  and  _146
REMARK   66  A    between atoms: _146  and  _147
REMARK   67  A    between atoms: _147  and  _148
REMARK   68  A    between atoms: _152  and  _154
REMARK   69  A    between atoms: _154  and  _155
REMARK   70  A    between atoms: _154  and  _157
REMARK   71  A    between atoms: _157  and  _158
REMARK   72  A    between atoms: _161  and  _163
REMARK   73  A    between atoms: _163  and  _164
REMARK   74  A    between atoms: _163  and  _166
REMARK   75  A    between atoms: _169  and  _171
REMARK   76  A    between atoms: _171  and  _172
REMARK   77  A    between atoms: _171  and  _174
REMARK   78  A    between atoms: _174  and  _175
REMARK   79  A    between atoms: _178  and  _180
REMARK   80  A    between atoms: _180  and  _181
REMARK   81  A    between atoms: _180  and  _183
REMARK   82  A    between atoms: _183  and  _184
REMARK   83  A    between atoms: _187  and  _189
REMARK   84  A    between atoms: _189  and  _190
REMARK   85  A    between atoms: _192  and  _194
REMARK   86  A    between atoms: _194  and  _195
REMARK   87  A    between atoms: _194  and  _197
REMARK   88  A    between atoms: _197  and  _198
REMARK   89  A    between atoms: _201  and  _203
REMARK   90  A    between atoms: _203  and  _204
REMARK   91  A    between atoms: _206  and  _208
REMARK   92  A    between atoms: _208  and  _209
REMARK   93  A    between atoms: _208  and  _211
REMARK   94  A    between atoms: _211  and  _212
REMARK   95  A    between atoms: _212  and  _213
REMARK   96  A    between atoms: _215  and  _217
REMARK   97  A    between atoms: _217  and  _218
REMARK   98  A    between atoms: _217  and  _220
REMARK   99  A    between atoms: _220  and  _221
REMARK  100  A    between atoms: _224  and  _226
REMARK  101  A    between atoms: _226  and  _227
REMARK  102  A    between atoms: _226  and  _229
REMARK  103  A    between atoms: _229  and  _230
REMARK  104  A    between atoms: _233  and  _235
REMARK  105  A    between atoms: _235  and  _236
REMARK  106  A    between atoms: _235  and  _238
REMARK  107  A    between atoms: _238  and  _239
REMARK  108  A    between atoms: _242  and  _244
REMARK  109  A    between atoms: _244  and  _245
REMARK  110  A    between atoms: _244  and  _247
REMARK  111  A    between atoms: _247  and  _248
REMARK  112  A    between atoms: _253  and  _255
REMARK  113  A    between atoms: _255  and  _256
REMARK  114  A    between atoms: _255  and  _258
REMARK  115  A    between atoms: _258  and  _259
REMARK  116  A    between atoms: _262  and  _264
REMARK  117  A    between atoms: _264  and  _265
REMARK  118  A    between atoms: _267  and  _269
REMARK  119  A    between atoms: _269  and  _270
REMARK  120  A    between atoms: _269  and  _272
REMARK  121  A    between atoms: _272  and  _273
REMARK  122  A    between atoms: _276  and  _278
REMARK  123  A    between atoms: _278  and  _279
REMARK  124  A    between atoms: _282  and  _284
REMARK  125  A    between atoms: _284  and  _285
REMARK  126  A    between atoms: _287  and  _289
REMARK  127  A    between atoms: _289  and  _290
REMARK  128  A    between atoms: _289  and  _292
REMARK  129  A    between atoms: _295  and  _297
REMARK  130  A    between atoms: _297  and  _298
REMARK  131  A    between atoms: _300  and  _302
REMARK  132  A    between atoms: _302  and  _303
REMARK  133  A    between atoms: _302  and  _305
REMARK  134  A    between atoms: _305  and  _306
REMARK  135  A    between atoms: _312  and  _314
REMARK  136  A    between atoms: _314  and  _315
REMARK  137  A    between atoms: _314  and  _317
REMARK  138  A    between atoms: _317  and  _318
REMARK  139  A    between atoms: _323  and  _324
REMARK  140  A    between atoms: _326  and  _328
REMARK  141  A    between atoms: _328  and  _329
REMARK  142  A    between atoms: _328  and  _331
REMARK  143  A    between atoms: _331  and  _332
REMARK  144  A    between atoms: _334  and  _336
REMARK  145  A    between atoms: _336  and  _337
REMARK  146  A    between atoms: _340  and  _342
REMARK  147  A    between atoms: _342  and  _343
REMARK  148  A    between atoms: _342  and  _345
REMARK  149  A    between atoms: _345  and  _346
REMARK  150  A    between atoms: _351  and  _352
REMARK  151  A    between atoms: _354  and  _356
REMARK  152  A    between atoms: _356  and  _357
REMARK  153  A    between atoms: _356  and  _359
REMARK  154  A    between atoms: _362  and  _364
REMARK  155  A    between atoms: _364  and  _365
REMARK  156  A    between atoms: _364  and  _367
REMARK  157  A    between atoms: _367  and  _368
REMARK  158  A    between atoms: _371  and  _373
REMARK  159  A    between atoms: _373  and  _374
REMARK  160  A    between atoms: _373  and  _376
REMARK  161  A    between atoms: _379  and  _381
REMARK  162  A    between atoms: _381  and  _382
REMARK  163  A    between atoms: _381  and  _384
REMARK  164  A    between atoms: _384  and  _385
REMARK  165  A    between atoms: _388  and  _390
REMARK  166  A    between atoms: _390  and  _391
REMARK  167  A    between atoms: _390  and  _393
REMARK  168  A    between atoms: _393  and  _394
REMARK  169  A    between atoms: _397  and  _399
REMARK  170  A    between atoms: _399  and  _400
REMARK  171  A    between atoms: _399  and  _402
REMARK  172  A    between atoms: _402  and  _403
REMARK  173  A    between atoms: _403  and  _404
REMARK  174  A    between atoms: _404  and  _405
REMARK  175  A    between atoms: _405  and  _406
REMARK  176  A    between atoms: _410  and  _412
REMARK  177  A    between atoms: _412  and  _413
REMARK  178  A    between atoms: _416  and  _418
REMARK  179  A    between atoms: _418  and  _419
REMARK  180  A    between atoms: _418  and  _421
REMARK  181  A    between atoms: _421  and  _422
REMARK  182  A    between atoms: _432  and  _434
REMARK  183  A    between atoms: _434  and  _435
REMARK  184  A    between atoms: _434  and  _437
REMARK  185  A    between atoms: _437  and  _438
REMARK  186  A    between atoms: _438  and  _439
REMARK  187  A    between atoms: _442  and  _444
REMARK  188  A    between atoms: _444  and  _445
REMARK  189  A    between atoms: _444  and  _447
REMARK  190  A    between atoms: _447  and  _448
REMARK  191  A    between atoms: _450  and  _452
REMARK  192  A    between atoms: _452  and  _453
REMARK  193  A    between atoms: _452  and  _455
REMARK  194  A    between atoms: _455  and  _456
REMARK  195  A    between atoms: _462  and  _464
REMARK  196  A    between atoms: _464  and  _465
REMARK  197  A    between atoms: _464  and  _467
REMARK  198  A    between atoms: _467  and  _468
REMARK  199  A    between atoms: _471  and  _473
REMARK  200  A    between atoms: _473  and  _474
REMARK  201  A    between atoms: _473  and  _476
REMARK  202  A    between atoms: _479  and  _481
REMARK  203  A    between atoms: _481  and  _482
REMARK  204  A    between atoms: _484  and  _486
REMARK  205  A    between atoms: _486  and  _487
REMARK  206  A    between atoms: _486  and  _489
REMARK  207  A    between atoms: _489  and  _490
REMARK  208  A    between atoms: _493  and  _495
REMARK  209  A    between atoms: _495  and  _496
REMARK  210  A    between atoms: _495  and  _498
REMARK  211  A    between atoms: _498  and  _499
REMARK  212  A    between atoms: _499  and  _500
REMARK  213  A    between atoms: _500  and  _501
REMARK  214  A    between atoms: _501  and  _502
REMARK  215  A    between atoms: _506  and  _508
REMARK  216  A    between atoms: _508  and  _509
REMARK  217  A    between atoms: _508  and  _511
REMARK  218  A    between atoms: _514  and  _516
REMARK  219  A    between atoms: _516  and  _517
REMARK  220  A    between atoms: _516  and  _519
REMARK  221  A    between atoms: _519  and  _520
REMARK                            x       y       z     vdW  Elec       q    Type
REMARK                         _______ _______ _______ _____ _____    ______ ____
ROOT
ATOM      1  C   ASN A   1       9.716   8.526  29.682  0.00  0.00    +0.239 C 
ATOM      2  N   LEU A   2       8.974   9.530  29.199  0.00  0.00    -0.297 N 
ATOM      3  H   LEU A   2       8.667  10.293  29.835  0.00  0.00    +0.150 HD
ATOM      4  O   ASN A   1      10.166   7.614  28.981  0.00  0.00    -0.274 OA
ENDROOT
BRANCH   1   5
ATOM      5  CA  ASN A   1       9.960   8.512  31.166  0.00  0.00    +0.154 C 
BRANCH   5   6
ATOM      6  N   ASN A   1      10.332   9.828  31.704  0.00  0.00    -0.238 NA
ATOM      7  H   ASN A   1       9.660  10.351  32.301  0.00  0.00    +0.142 HD
ENDBRANCH   5   6
BRANCH   5   8
ATOM      8  CB  ASN A   1       8.722   7.953  31.890  0.00  0.00    +0.111 C 
BRANCH   8   9
ATOM      9  CG  ASN A   1       8.925   7.824  33.394  0.00  0.00    +0.221 C 
ATOM     10  ND2 ASN A   1       7.813   7.828  34.147  0.00  0.00    -0.329 N 
ATOM     11 HD21 ASN A   1       7.883   7.717  35.179  0.00  0.00    +0.145 HD
ATOM     12 HD22 ASN A   1       6.882   7.942  33.698  0.00  0.00    +0.145 HD
ATOM     13  OD1 ASN A   1      10.053   7.692  33.876  0.00  0.00    -0.275 OA
ENDBRANCH   8   9
ENDBRANCH   5   8
ENDBRANCH   1   5
BRANCH   2  14
ATOM     14  CA  LEU A   2       8.585   9.569  27.774  0.00  0.00    +0.149 C 
BRANCH  14  15
ATOM     15  C   LEU A   2       9.815   9.679  26.859  0.00  0.00    +0.241 C 
ATOM     16  N   GLY A   3      10.795  10.488  27.270  0.00  0.00    -0.296 N 
ATOM     17  H   GLY A   3      10.668  11.007  28.162  0.00  0.00    +0.150 HD
ATOM     18  O   LEU A   2       9.879   9.008  25.823  0.00  0.00    -0.273 OA
BRANCH  16  19
ATOM     19  CA  GLY A   3      12.032  10.677  26.527  0.00  0.00    +0.163 C 
BRANCH  19  20
ATOM     20  C   GLY A   3      12.958   9.471  26.588  0.00  0.00    +0.229 C 
ATOM     21  O   GLY A   3      13.558   9.103  25.579  0.00  0.00    -0.286 OA
ENDBRANCH  19  20
ENDBRANCH  16  19
ENDBRANCH  14  15
BRANCH  14  22
ATOM     22  CB  LEU A   2       7.573  10.691  27.498  0.00  0.00    +0.029 C 
BRANCH  22  23
ATOM     23  CG  LEU A   2       6.176  10.473  28.098  0.00  0.00    +0.002 C 
ATOM     24  CD2 LEU A   2       5.417  11.794  28.132  0.00  0.00    +0.000 C 
ATOM     25  CD1 LEU A   2       5.345   9.406  27.402  0.00  0.00    +0.000 C 
ENDBRANCH  22  23
ENDBRANCH  14  22
ENDBRANCH   2  14
TORSDOF 10
REMARK  Name = ../refined-set-2016/4bqg/4bqg_pocket.pdb
REMARK  221 active torsions:
REMARK  status: ('A' for Active; 'I' for Inactive)
REMARK    1  A    between atoms: _1  and  _3
REMARK    2  A    between atoms: _3  and  _4
REMARK    3  A    between atoms: _3  and  _6
REMARK    4  A    between atoms: _6  and  _7
REMARK    5  A    between atoms: _13  and  _15
REMARK    6  A    between atoms: _15  and  _16
REMARK    7  A    between atoms: _15  and  _18
REMARK    8  A    between atoms: _18  and  _19
REMARK    9  A    between atoms: _22  and  _24
REMARK   10  A    between atoms: _24  and  _25
REMARK   11  A    between atoms: _24  and  _27
REMARK   12  A    between atoms: _27  and  _28
REMARK   13  A    between atoms: _28  and  _29
REMARK   14  A    between atoms: _31  and  _33
REMARK   15  A    between atoms: _33  and  _34
REMARK   16  A    between atoms: _33  and  _36
REMARK   17  A    between atoms: _36  and  _37
REMARK   18  A    between atoms: _43  and  _45
REMARK   19  A    between atoms: _45  and  _46
REMARK   20  A    between atoms: _45  and  _48
REMARK   21  A    between atoms: _48  and  _49
REMARK   22  A    between atoms: _52  and  _54
REMARK   23  A    between atoms: _54  and  _55
REMARK   24  A    between atoms: _54  and  _57
REMARK   25  A    between atoms: _57  and  _58
REMARK   26  A    between atoms: _58  and  _59
REMARK   27  A    between atoms: _62  and  _64
REMARK   28  A    between atoms: _64  and  _65
REMARK   29  A    between atoms: _64  and  _67
REMARK   30  A    between atoms: _67  and  _68
REMARK   31  A    between atoms: _71  and  _73
REMARK   32  A    between atoms: _73  and  _74
REMARK   33  A    between atoms: _73  and  _76
REMARK   34  A    between atoms: _76  and  _77
REMARK   35  A    between atoms: _80  and  _82
REMARK   36  A    between atoms: _82  and  _83
REMARK   37  A    between atoms: _82  and  _85
REMARK   38  A    between atoms: _85  and  _86
REMARK   39  A    between atoms: _88  and  _90
REMARK   40  A    between atoms: _90  and  _91
REMARK   41  A    between atoms: _90  and  _93
REMARK   42  A    between atoms: _93  and  _94
REMARK   43  A    between atoms: _99  and  _101
REMARK   44  A    between atoms: _101  and  _102
REMARK   45  A    between atoms: _101  and  _104
REMARK   46  A    between atoms: _104  and  _105
REMARK   47  A    between atoms: _107  and  _109
REMARK   48  A    between atoms: _109  and  _110
REMARK   49  A    between atoms: _109  and  _112
REMARK   50  A    between atoms: _112  and  _113
REMARK   51  A    between atoms: _115  and  _117
REMARK   52  A    between atoms: _117  and  _118
REMARK   53  A    between atoms: _117  and  _120
REMARK   54  A    between atoms: _120  and  _121
REMARK   55  A    between atoms: _124  and  _126
REMARK   56  A    between atoms: _126  and  _127
REMARK   57  A    between atoms: _130  and  _132
REMARK   58  A    between atoms: _132  and  _133
REMARK   59  A    between atoms: _132  and  _135
REMARK   60  A    between atoms: _135  and  _136
REMARK   61  A    between atoms: _139  and  _141
REMARK   62  A    between atoms: _141  and  _142
REMARK   63  A    between atoms: _141  and  _144
REMARK   64  A    between atoms: _144  and  _145
REMARK   65  A    between atoms: _145  and  _146
REMARK   66  A    between atoms: _146  and  _147
REMARK   67  A    between atoms: _147  and  _148
REMARK   68  A    between atoms: _152  and  _154
REMARK   69  A    between atoms: _154  and  _155
REMARK   70  A    between atoms: _154  and  _157
REMARK   71  A    between atoms: _157  and  _158
REMARK   72  A    between atoms: _161  and  _163
REMARK   73  A    between atoms: _163  and  _164
REMARK   74  A    between atoms: _163  and  _166
REMARK   75  A    between atoms: _169  and  _171
REMARK   76  A    between atoms: _171  and  _172
REMARK   77  A    between atoms: _171  and  _174
REMARK   78  A    between atoms: _174  and  _175
REMARK   79  A    between atoms: _178  and  _180
REMARK   80  A    between atoms: _180  and  _181
REMARK   81  A    between atoms: _180  and  _183
REMARK   82  A    between atoms: _183  and  _184
REMARK   83  A    between atoms: _187  and  _189
REMARK   84  A    between atoms: _189  and  _190
REMARK   85  A    between atoms: _192  and  _194
REMARK   86  A    between atoms: _194  and  _195
REMARK   87  A    between atoms: _194  and  _197
REMARK   88  A    between atoms: _197  and  _198
REMARK   89  A    between atoms: _201  and  _203
REMARK   90  A    between atoms: _203  and  _204
REMARK   91  A    between atoms: _206  and  _208
REMARK   92  A    between atoms: _208  and  _209
REMARK   93  A    between atoms: _208  and  _211
REMARK   94  A    between atoms: _211  and  _212
REMARK   95  A    between atoms: _212  and  _213
REMARK   96  A    between atoms: _215  and  _217
REMARK   97  A    between atoms: _217  and  _218
REMARK   98  A    between atoms: _217  and  _220
REMARK   99  A    between atoms: _220  and  _221
REMARK  100  A    between atoms: _224  and  _226
REMARK  101  A    between atoms: _226  and  _227
REMARK  102  A    between atoms: _226  and  _229
REMARK  103  A    between atoms: _229  and  _230
REMARK  104  A    between atoms: _233  and  _235
REMARK  105  A    between atoms: _235  and  _236
REMARK  106  A    between atoms: _235  and  _238
REMARK  107  A    between atoms: _238  and  _239
REMARK  108  A    between atoms: _242  and  _244
REMARK  109  A    between atoms: _244  and  _245
REMARK  110  A    between atoms: _244  and  _247
REMARK  111  A    between atoms: _247  and  _248
REMARK  112  A    between atoms: _253  and  _255
REMARK  113  A    between atoms: _255  and  _256
REMARK  114  A    between atoms: _255  and  _258
REMARK  115  A    between atoms: _258  and  _259
REMARK  116  A    between atoms: _262  and  _264
REMARK  117  A    between atoms: _264  and  _265
REMARK  118  A    between atoms: _267  and  _269
REMARK  119  A    between atoms: _269  and  _270
REMARK  120  A    between atoms: _269  and  _272
REMARK  121  A    between atoms: _272  and  _273
REMARK  122  A    between atoms: _276  and  _278
REMARK  123  A    between atoms: _278  and  _279
REMARK  124  A    between atoms: _282  and  _284
REMARK  125  A    between atoms: _284  and  _285
REMARK  126  A    between atoms: _287  and  _289
REMARK  127  A    between atoms: _289  and  _290
REMARK  128  A    between atoms: _289  and  _292
REMARK  129  A    between atoms: _295  and  _297
REMARK  130  A    between atoms: _297  and  _298
REMARK  131  A    between atoms: _300  and  _302
REMARK  132  A    between atoms: _302  and  _303
REMARK  133  A    between atoms: _302  and  _305
REMARK  134  A    between atoms: _305  and  _306
REMARK  135  A    between atoms: _312  and  _314
REMARK  136  A    between atoms: _314  and  _315
REMARK  137  A    between atoms: _314  and  _317
REMARK  138  A    between atoms: _317  and  _318
REMARK  139  A    between atoms: _323  and  _324
REMARK  140  A    between atoms: _326  and  _328
REMARK  141  A    between atoms: _328  and  _329
REMARK  142  A    between atoms: _328  and  _331
REMARK  143  A    between atoms: _331  and  _332
REMARK  144  A    between atoms: _334  and  _336
REMARK  145  A    between atoms: _336  and  _337
REMARK  146  A    between atoms: _340  and  _342
REMARK  147  A    between atoms: _342  and  _343
REMARK  148  A    between atoms: _342  and  _345
REMARK  149  A    between atoms: _345  and  _346
REMARK  150  A    between atoms: _351  and  _352
REMARK  151  A    between atoms: _354  and  _356
REMARK  152  A    between atoms: _356  and  _357
REMARK  153  A    between atoms: _356  and  _359
REMARK  154  A    between atoms: _362  and  _364
REMARK  155  A    between atoms: _364  and  _365
REMARK  156  A    between atoms: _364  and  _367
REMARK  157  A    between atoms: _367  and  _368
REMARK  158  A    between atoms: _371  and  _373
REMARK  159  A    between atoms: _373  and  _374
REMARK  160  A    between atoms: _373  and  _376
REMARK  161  A    between atoms: _379  and  _381
REMARK  162  A    between atoms: _381  and  _382
REMARK  163  A    between atoms: _381  and  _384
REMARK  164  A    between atoms: _384  and  _385
REMARK  165  A    between atoms: _388  and  _390
REMARK  166  A    between atoms: _390  and  _391
REMARK  167  A    between atoms: _390  and  _393
REMARK  168  A    between atoms: _393  and  _394
REMARK  169  A    between atoms: _397  and  _399
REMARK  170  A    between atoms: _399  and  _400
REMARK  171  A    between atoms: _399  and  _402
REMARK  172  A    between atoms: _402  and  _403
REMARK  173  A    between atoms: _403  and  _404
REMARK  174  A    between atoms: _404  and  _405
REMARK  175  A    between atoms: _405  and  _406
REMARK  176  A    between atoms: _410  and  _412
REMARK  177  A    between atoms: _412  and  _413
REMARK  178  A    between atoms: _416  and  _418
REMARK  179  A    between atoms: _418  and  _419
REMARK  180  A    between atoms: _418  and  _421
REMARK  181  A    between atoms: _421  and  _422
REMARK  182  A    between atoms: _432  and  _434
REMARK  183  A    between atoms: _434  and  _435
REMARK  184  A    between atoms: _434  and  _437
REMARK  185  A    between atoms: _437  and  _438
REMARK  186  A    between atoms: _438  and  _439
REMARK  187  A    between atoms: _442  and  _444
REMARK  188  A    between atoms: _444  and  _445
REMARK  189  A    between atoms: _444  and  _447
REMARK  190  A    between atoms: _447  and  _448
REMARK  191  A    between atoms: _450  and  _452
REMARK  192  A    between atoms: _452  and  _453
REMARK  193  A    between atoms: _452  and  _455
REMARK  194  A    between atoms: _455  and  _456
REMARK  195  A    between atoms: _462  and  _464
REMARK  196  A    between atoms: _464  and  _465
REMARK  197  A    between atoms: _464  and  _467
REMARK  198  A    between atoms: _467  and  _468
REMARK  199  A    between atoms: _471  and  _473
REMARK  200  A    between atoms: _473  and  _474
REMARK  201  A    between atoms: _473  and  _476
REMARK  202  A    between atoms: _479  and  _481
REMARK  203  A    between atoms: _481  and  _482
REMARK  204  A    between atoms: _484  and  _486
REMARK  205  A    between atoms: _486  and  _487
REMARK  206  A    between atoms: _486  and  _489
REMARK  207  A    between atoms: _489  and  _490
REMARK  208  A    between atoms: _493  and  _495
REMARK  209  A    between atoms: _495  and  _496
REMARK  210  A    between atoms: _495  and  _498
REMARK  211  A    between atoms: _498  and  _499
REMARK  212  A    between atoms: _499  and  _500
REMARK  213  A    between atoms: _500  and  _501
REMARK  214  A    between atoms: _501  and  _502
REMARK  215  A    between atoms: _506  and  _508
REMARK  216  A    between atoms: _508  and  _509
REMARK  217  A    between atoms: _508  and  _511
REMARK  218  A    between atoms: _514  and  _516
REMARK  219  A    between atoms: _516  and  _517
REMARK  220  A    between atoms: _516  and  _519
REMARK  221  A    between atoms: _519  and  _520
REMARK                            x       y       z     vdW  Elec       q    Type
REMARK                         _______ _______ _______ _____ _____    ______ ____
ROOT
ATOM      1  C   ILE A   1      11.523   5.412  24.900  0.00  0.00    +0.238 C 
ATOM      2  N   ALA A   2      11.565   6.684  24.477  0.00  0.00    -0.298 N 
ATOM      3  H   ALA A   2      11.533   7.445  25.185  0.00  0.00    +0.150 HD
ATOM      4  O   ILE A   1      11.645   4.444  24.152  0.00  0.00    -0.274 OA
ENDROOT
BRANCH   2   5
ATOM      5  CA  ALA A   2      11.654   7.047  23.065  0.00  0.00    +0.137 C 
ATOM      6  CB  ALA A   2      11.061   8.447  22.837  0.00  0.00    +0.030 C 
BRANCH   5   7
ATOM      7  C   ALA A   2      13.066   6.949  22.462  0.00  0.00    +0.227 C 
ATOM      8  O   ALA A   2      13.203   6.919  21.237  0.00  0.00    -0.286 OA
ENDBRANCH   5   7
ENDBRANCH   2   5
BRANCH   1   9
ATOM      9  CA  ILE A   1      11.351   5.197  26.392  0.00  0.00    +0.145 C 
BRANCH   9  10
ATOM     10  N   ILE A   1      11.981   6.304  27.132  0.00  0.00    -0.238 NA
ATOM     11  H   ILE A   1      11.383   6.951  27.684  0.00  0.00    +0.142 HD
ENDBRANCH   9  10
BRANCH   9  12
ATOM     12  CB  ILE A   1       9.850   4.987  26.784  0.00  0.00    +0.025 C 
ATOM     13  CG2 ILE A   1       8.941   5.907  25.986  0.00  0.00    +0.002 C 
BRANCH  12  14
ATOM     14  CG1 ILE A   1       9.376   3.544  26.516  0.00  0.00    +0.002 C 
ATOM     15  CD1 ILE A   1      10.015   2.487  27.403  0.00  0.00    +0.000 C 
ENDBRANCH  12  14
ENDBRANCH   9  12
ENDBRANCH   1   9
TORSDOF 6
REMARK  Name = ../refined-set-2016/4bqg/4bqg_pocket.pdb
REMARK  221 active torsions:
REMARK  status: ('A' for Active; 'I' for Inactive)
REMARK    1  A    between atoms: _1  and  _3
REMARK    2  A    between atoms: _3  and  _4
REMARK    3  A    between atoms: _3  and  _6
REMARK    4  A    between atoms: _6  and  _7
REMARK    5  A    between atoms: _13  and  _15
REMARK    6  A    between atoms: _15  and  _16
REMARK    7  A    between atoms: _15  and  _18
REMARK    8  A    between atoms: _18  and  _19
REMARK    9  A    between atoms: _22  and  _24
REMARK   10  A    between atoms: _24  and  _25
REMARK   11  A    between atoms: _24  and  _27
REMARK   12  A    between atoms: _27  and  _28
REMARK   13  A    between atoms: _28  and  _29
REMARK   14  A    between atoms: _31  and  _33
REMARK   15  A    between atoms: _33  and  _34
REMARK   16  A    between atoms: _33  and  _36
REMARK   17  A    between atoms: _36  and  _37
REMARK   18  A    between atoms: _43  and  _45
REMARK   19  A    between atoms: _45  and  _46
REMARK   20  A    between atoms: _45  and  _48
REMARK   21  A    between atoms: _48  and  _49
REMARK   22  A    between atoms: _52  and  _54
REMARK   23  A    between atoms: _54  and  _55
REMARK   24  A    between atoms: _54  and  _57
REMARK   25  A    between atoms: _57  and  _58
REMARK   26  A    between atoms: _58  and  _59
REMARK   27  A    between atoms: _62  and  _64
REMARK   28  A    between atoms: _64  and  _65
REMARK   29  A    between atoms: _64  and  _67
REMARK   30  A    between atoms: _67  and  _68
REMARK   31  A    between atoms: _71  and  _73
REMARK   32  A    between atoms: _73  and  _74
REMARK   33  A    between atoms: _73  and  _76
REMARK   34  A    between atoms: _76  and  _77
REMARK   35  A    between atoms: _80  and  _82
REMARK   36  A    between atoms: _82  and  _83
REMARK   37  A    between atoms: _82  and  _85
REMARK   38  A    between atoms: _85  and  _86
REMARK   39  A    between atoms: _88  and  _90
REMARK   40  A    between atoms: _90  and  _91
REMARK   41  A    between atoms: _90  and  _93
REMARK   42  A    between atoms: _93  and  _94
REMARK   43  A    between atoms: _99  and  _101
REMARK   44  A    between atoms: _101  and  _102
REMARK   45  A    between atoms: _101  and  _104
REMARK   46  A    between atoms: _104  and  _105
REMARK   47  A    between atoms: _107  and  _109
REMARK   48  A    between atoms: _109  and  _110
REMARK   49  A    between atoms: _109  and  _112
REMARK   50  A    between atoms: _112  and  _113
REMARK   51  A    between atoms: _115  and  _117
REMARK   52  A    between atoms: _117  and  _118
REMARK   53  A    between atoms: _117  and  _120
REMARK   54  A    between atoms: _120  and  _121
REMARK   55  A    between atoms: _124  and  _126
REMARK   56  A    between atoms: _126  and  _127
REMARK   57  A    between atoms: _130  and  _132
REMARK   58  A    between atoms: _132  and  _133
REMARK   59  A    between atoms: _132  and  _135
REMARK   60  A    between atoms: _135  and  _136
REMARK   61  A    between atoms: _139  and  _141
REMARK   62  A    between atoms: _141  and  _142
REMARK   63  A    between atoms: _141  and  _144
REMARK   64  A    between atoms: _144  and  _145
REMARK   65  A    between atoms: _145  and  _146
REMARK   66  A    between atoms: _146  and  _147
REMARK   67  A    between atoms: _147  and  _148
REMARK   68  A    between atoms: _152  and  _154
REMARK   69  A    between atoms: _154  and  _155
REMARK   70  A    between atoms: _154  and  _157
REMARK   71  A    between atoms: _157  and  _158
REMARK   72  A    between atoms: _161  and  _163
REMARK   73  A    between atoms: _163  and  _164
REMARK   74  A    between atoms: _163  and  _166
REMARK   75  A    between atoms: _169  and  _171
REMARK   76  A    between atoms: _171  and  _172
REMARK   77  A    between atoms: _171  and  _174
REMARK   78  A    between atoms: _174  and  _175
REMARK   79  A    between atoms: _178  and  _180
REMARK   80  A    between atoms: _180  and  _181
REMARK   81  A    between atoms: _180  and  _183
REMARK   82  A    between atoms: _183  and  _184
REMARK   83  A    between atoms: _187  and  _189
REMARK   84  A    between atoms: _189  and  _190
REMARK   85  A    between atoms: _192  and  _194
REMARK   86  A    between atoms: _194  and  _195
REMARK   87  A    between atoms: _194  and  _197
REMARK   88  A    between atoms: _197  and  _198
REMARK   89  A    between atoms: _201  and  _203
REMARK   90  A    between atoms: _203  and  _204
REMARK   91  A    between atoms: _206  and  _208
REMARK   92  A    between atoms: _208  and  _209
REMARK   93  A    between atoms: _208  and  _211
REMARK   94  A    between atoms: _211  and  _212
REMARK   95  A    between atoms: _212  and  _213
REMARK   96  A    between atoms: _215  and  _217
REMARK   97  A    between atoms: _217  and  _218
REMARK   98  A    between atoms: _217  and  _220
REMARK   99  A    between atoms: _220  and  _221
REMARK  100  A    between atoms: _224  and  _226
REMARK  101  A    between atoms: _226  and  _227
REMARK  102  A    between atoms: _226  and  _229
REMARK  103  A    between atoms: _229  and  _230
REMARK  104  A    between atoms: _233  and  _235
REMARK  105  A    between atoms: _235  and  _236
REMARK  106  A    between atoms: _235  and  _238
REMARK  107  A    between atoms: _238  and  _239
REMARK  108  A    between atoms: _242  and  _244
REMARK  109  A    between atoms: _244  and  _245
REMARK  110  A    between atoms: _244  and  _247
REMARK  111  A    between atoms: _247  and  _248
REMARK  112  A    between atoms: _253  and  _255
REMARK  113  A    between atoms: _255  and  _256
REMARK  114  A    between atoms: _255  and  _258
REMARK  115  A    between atoms: _258  and  _259
REMARK  116  A    between atoms: _262  and  _264
REMARK  117  A    between atoms: _264  and  _265
REMARK  118  A    between atoms: _267  and  _269
REMARK  119  A    between atoms: _269  and  _270
REMARK  120  A    between atoms: _269  and  _272
REMARK  121  A    between atoms: _272  and  _273
REMARK  122  A    between atoms: _276  and  _278
REMARK  123  A    between atoms: _278  and  _279
REMARK  124  A    between atoms: _282  and  _284
REMARK  125  A    between atoms: _284  and  _285
REMARK  126  A    between atoms: _287  and  _289
REMARK  127  A    between atoms: _289  and  _290
REMARK  128  A    between atoms: _289  and  _292
REMARK  129  A    between atoms: _295  and  _297
REMARK  130  A    between atoms: _297  and  _298
REMARK  131  A    between atoms: _300  and  _302
REMARK  132  A    between atoms: _302  and  _303
REMARK  133  A    between atoms: _302  and  _305
REMARK  134  A    between atoms: _305  and  _306
REMARK  135  A    between atoms: _312  and  _314
REMARK  136  A    between atoms: _314  and  _315
REMARK  137  A    between atoms: _314  and  _317
REMARK  138  A    between atoms: _317  and  _318
REMARK  139  A    between atoms: _323  and  _324
REMARK  140  A    between atoms: _326  and  _328
REMARK  141  A    between atoms: _328  and  _329
REMARK  142  A    between atoms: _328  and  _331
REMARK  143  A    between atoms: _331  and  _332
REMARK  144  A    between atoms: _334  and  _336
REMARK  145  A    between atoms: _336  and  _337
REMARK  146  A    between atoms: _340  and  _342
REMARK  147  A    between atoms: _342  and  _343
REMARK  148  A    between atoms: _342  and  _345
REMARK  149  A    between atoms: _345  and  _346
REMARK  150  A    between atoms: _351  and  _352
REMARK  151  A    between atoms: _354  and  _356
REMARK  152  A    between atoms: _356  and  _357
REMARK  153  A    between atoms: _356  and  _359
REMARK  154  A    between atoms: _362  and  _364
REMARK  155  A    between atoms: _364  and  _365
REMARK  156  A    between atoms: _364  and  _367
REMARK  157  A    between atoms: _367  and  _368
REMARK  158  A    between atoms: _371  and  _373
REMARK  159  A    between atoms: _373  and  _374
REMARK  160  A    between atoms: _373  and  _376
REMARK  161  A    between atoms: _379  and  _381
REMARK  162  A    between atoms: _381  and  _382
REMARK  163  A    between atoms: _381  and  _384
REMARK  164  A    between atoms: _384  and  _385
REMARK  165  A    between atoms: _388  and  _390
REMARK  166  A    between atoms: _390  and  _391
REMARK  167  A    between atoms: _390  and  _393
REMARK  168  A    between atoms: _393  and  _394
REMARK  169  A    between atoms: _397  and  _399
REMARK  170  A    between atoms: _399  and  _400
REMARK  171  A    between atoms: _399  and  _402
REMARK  172  A    between atoms: _402  and  _403
REMARK  173  A    between atoms: _403  and  _404
REMARK  174  A    between atoms: _404  and  _405
REMARK  175  A    between atoms: _405  and  _406
REMARK  176  A    between atoms: _410  and  _412
REMARK  177  A    between atoms: _412  and  _413
REMARK  178  A    between atoms: _416  and  _418
REMARK  179  A    between atoms: _418  and  _419
REMARK  180  A    between atoms: _418  and  _421
REMARK  181  A    between atoms: _421  and  _422
REMARK  182  A    between atoms: _432  and  _434
REMARK  183  A    between atoms: _434  and  _435
REMARK  184  A    between atoms: _434  and  _437
REMARK  185  A    between atoms: _437  and  _438
REMARK  186  A    between atoms: _438  and  _439
REMARK  187  A    between atoms: _442  and  _444
REMARK  188  A    between atoms: _444  and  _445
REMARK  189  A    between atoms: _444  and  _447
REMARK  190  A    between atoms: _447  and  _448
REMARK  191  A    between atoms: _450  and  _452
REMARK  192  A    between atoms: _452  and  _453
REMARK  193  A    between atoms: _452  and  _455
REMARK  194  A    between atoms: _455  and  _456
REMARK  195  A    between atoms: _462  and  _464
REMARK  196  A    between atoms: _464  and  _465
REMARK  197  A    between atoms: _464  and  _467
REMARK  198  A    between atoms: _467  and  _468
REMARK  199  A    between atoms: _471  and  _473
REMARK  200  A    between atoms: _473  and  _474
REMARK  201  A    between atoms: _473  and  _476
REMARK  202  A    between atoms: _479  and  _481
REMARK  203  A    between atoms: _481  and  _482
REMARK  204  A    between atoms: _484  and  _486
REMARK  205  A    between atoms: _486  and  _487
REMARK  206  A    between atoms: _486  and  _489
REMARK  207  A    between atoms: _489  and  _490
REMARK  208  A    between atoms: _493  and  _495
REMARK  209  A    between atoms: _495  and  _496
REMARK  210  A    between atoms: _495  and  _498
REMARK  211  A    between atoms: _498  and  _499
REMARK  212  A    between atoms: _499  and  _500
REMARK  213  A    between atoms: _500  and  _501
REMARK  214  A    between atoms: _501  and  _502
REMARK  215  A    between atoms: _506  and  _508
REMARK  216  A    between atoms: _508  and  _509
REMARK  217  A    between atoms: _508  and  _511
REMARK  218  A    between atoms: _514  and  _516
REMARK  219  A    between atoms: _516  and  _517
REMARK  220  A    between atoms: _516  and  _519
REMARK  221  A    between atoms: _519  and  _520
REMARK                            x       y       z     vdW  Elec       q    Type
REMARK                         _______ _______ _______ _____ _____    ______ ____
ROOT
ATOM      1  CA  TYR A   5       7.583  14.420  17.386  0.00  0.00    +0.153 C 
ENDROOT
BRANCH   1   4
ATOM      2  C   PHE A   4       5.407  13.662  18.150  0.00  0.00    +0.241 C 
ATOM      3  O   PHE A   4       4.879  14.751  17.898  0.00  0.00    -0.273 OA
ATOM      4  N   TYR A   5       6.688  13.402  17.889  0.00  0.00    -0.297 N 
ATOM      5  H   TYR A   5       7.053  12.442  18.051  0.00  0.00    +0.150 HD
BRANCH   2   6
ATOM      6  CA  PHE A   4       4.598  12.538  18.788  0.00  0.00    +0.153 C 
BRANCH   6   8
ATOM      7  C   GLY A   3       4.858  11.027  16.892  0.00  0.00    +0.243 C 
ATOM      8  N   PHE A   4       4.918  11.215  18.209  0.00  0.00    -0.297 N 
ATOM      9  H   PHE A   4       5.191  10.429  18.833  0.00  0.00    +0.150 HD
ATOM     10  O   GLY A   3       4.563  11.933  16.133  0.00  0.00    -0.273 OA
BRANCH   7  11
ATOM     11  CA  GLY A   3       5.208   9.655  16.333  0.00  0.00    +0.176 C 
BRANCH  11  14
ATOM     12  C   VAL A   2       7.248   9.164  17.540  0.00  0.00    +0.241 C 
ATOM     13  O   VAL A   2       7.742  10.262  17.227  0.00  0.00    -0.273 OA
ATOM     14  N   GLY A   3       6.012   8.799  17.186  0.00  0.00    -0.295 N 
ATOM     15  H   GLY A   3       5.624   7.895  17.524  0.00  0.00    +0.150 HD
BRANCH  12  16
ATOM     16  CA  VAL A   2       8.052   8.134  18.359  0.00  0.00    +0.148 C 
BRANCH  16  19
ATOM     17  C   GLY A   1       7.225   5.895  18.904  0.00  0.00    +0.240 C 
ATOM     18  O   GLY A   1       7.079   6.217  20.069  0.00  0.00    -0.274 OA
ATOM     19  N   VAL A   2       7.691   6.750  17.990  0.00  0.00    -0.297 N 
ATOM     20  H   VAL A   2       7.801   6.437  17.004  0.00  0.00    +0.150 HD
BRANCH  17  21
ATOM     21  CA  GLY A   1       6.856   4.497  18.463  0.00  0.00    +0.169 C 
BRANCH  21  22
ATOM     22  N   GLY A   1       7.518   4.030  17.243  0.00  0.00    -0.236 NA
ATOM     23  H   GLY A   1       6.941   3.907  16.387  0.00  0.00    +0.142 HD
ENDBRANCH  21  22
ENDBRANCH  17  21
ENDBRANCH  16  19
BRANCH  16  24
ATOM     24  CB  VAL A   2       9.585   8.375  18.312  0.00  0.00    +0.027 C 
ATOM     25  CG2 VAL A   2      10.254   7.435  19.304  0.00  0.00    +0.002 C 
ATOM     26  CG1 VAL A   2      10.134   8.118  16.902  0.00  0.00    +0.002 C 
ENDBRANCH  16  24
ENDBRANCH  12  16
ENDBRANCH  11  14
ENDBRANCH   7  11
ENDBRANCH   6   8
BRANCH   6  27
ATOM     27  CB  PHE A   4       4.843  12.564  20.314  0.00  0.00    +0.055 C 
BRANCH  27  28
ATOM     28  CG  PHE A   4       4.666  13.929  20.921  0.00  0.00    -0.020 A 
ATOM     29  CD2 PHE A   4       5.771  14.680  21.326  0.00  0.00    -0.004 A 
ATOM     30  CE2 PHE A   4       5.611  15.954  21.882  0.00  0.00    -0.000 A 
ATOM     31  CZ  PHE A   4       4.347  16.491  22.026  0.00  0.00    -0.000 A 
ATOM     32  CE1 PHE A   4       3.231  15.751  21.618  0.00  0.00    -0.000 A 
ATOM     33  CD1 PHE A   4       3.394  14.488  21.053  0.00  0.00    -0.004 A 
ENDBRANCH  27  28
ENDBRANCH   6  27
ENDBRANCH   2   6
ENDBRANCH   1   4
BRANCH   1  34
ATOM     34  C   TYR A   5       7.232  14.884  15.971  0.00  0.00    +0.241 C 
ATOM     35  O   TYR A   5       7.683  15.950  15.546  0.00  0.00    -0.273 OA
ATOM     36  N   SER A   6       6.383  14.117  15.271  0.00  0.00    -0.295 N 
ATOM     37  H   SER A   6       6.066  13.213  15.675  0.00  0.00    +0.150 HD
BRANCH  36  38
ATOM     38  CA  SER A   6       5.892  14.522  13.952  0.00  0.00    +0.178 C 
BRANCH  38  39
ATOM     39  C   SER A   6       5.020  15.765  14.029  0.00  0.00    +0.243 C 
ATOM     40  N   ALA A   7       4.607  16.150  15.237  0.00  0.00    -0.297 N 
ATOM     41  H   ALA A   7       4.808  15.552  16.064  0.00  0.00    +0.150 HD
ATOM     42  O   SER A   6       4.759  16.396  13.007  0.00  0.00    -0.273 OA
BRANCH  40  43
ATOM     43  CA  ALA A   7       3.874  17.405  15.412  0.00  0.00    +0.149 C 
ATOM     44  CB  ALA A   7       3.539  17.660  16.903  0.00  0.00    +0.031 C 
BRANCH  43  45
ATOM     45  C   ALA A   7       4.695  18.585  14.836  0.00  0.00    +0.241 C 
ATOM     46  N   TYR A   8       6.022  18.484  14.899  0.00  0.00    -0.298 N 
ATOM     47  H   TYR A   8       6.454  17.621  15.287  0.00  0.00    +0.150 HD
ATOM     48  O   ALA A   7       4.123  19.547  14.331  0.00  0.00    -0.273 OA
BRANCH  46  49
ATOM     49  CA  TYR A   8       6.880  19.576  14.427  0.00  0.00    +0.141 C 
BRANCH  49  50
ATOM     50  C   TYR A   8       6.985  19.688  12.890  0.00  0.00    +0.227 C 
ATOM     51  O   TYR A   8       7.647  20.602  12.379  0.00  0.00    -0.286 OA
ENDBRANCH  49  50
BRANCH  49  52
ATOM     52  CB  TYR A   8       8.269  19.531  15.112  0.00  0.00    +0.054 C 
BRANCH  52  53
ATOM     53  CG  TYR A   8       8.103  19.885  16.570  0.00  0.00    -0.020 A 
ATOM     54  CD2 TYR A   8       7.763  18.901  17.508  0.00  0.00    -0.001 A 
ATOM     55  CE2 TYR A   8       7.567  19.229  18.841  0.00  0.00    +0.036 A 
ATOM     56  CZ  TYR A   8       7.653  20.550  19.240  0.00  0.00    +0.134 A 
ATOM     57  CE1 TYR A   8       7.979  21.558  18.324  0.00  0.00    +0.036 A 
ATOM     58  CD1 TYR A   8       8.195  21.219  16.996  0.00  0.00    -0.001 A 
BRANCH  56  59
ATOM     59  OH  TYR A   8       7.434  20.858  20.571  0.00  0.00    -0.506 OA
ATOM     60  HH  TYR A   8       6.679  21.495  20.641  0.00  0.00    +0.292 HD
ENDBRANCH  56  59
ENDBRANCH  52  53
ENDBRANCH  49  52
ENDBRANCH  46  49
ENDBRANCH  43  45
ENDBRANCH  40  43
ENDBRANCH  38  39
BRANCH  38  61
ATOM     61  CB  SER A   6       5.106  13.380  13.260  0.00  0.00    +0.166 C 
BRANCH  61  62
ATOM     62  OG  SER A   6       3.858  13.168  13.922  0.00  0.00    -0.380 OA
ATOM     63  H   SER A   6       4.024  12.922  14.866  0.00  0.00    +0.211 HD
ENDBRANCH  61  62
ENDBRANCH  38  61
ENDBRANCH  36  38
ENDBRANCH   1  34
BRANCH   1  64
ATOM     64  CB  TYR A   5       9.042  13.955  17.510  0.00  0.00    +0.055 C 
BRANCH  64  65
ATOM     65  CG  TYR A   5       9.356  13.609  18.952  0.00  0.00    -0.020 A 
ATOM     66  CD2 TYR A   5       9.582  14.618  19.912  0.00  0.00    -0.001 A 
ATOM     67  CE2 TYR A   5       9.816  14.291  21.250  0.00  0.00    +0.036 A 
ATOM     68  CZ  TYR A   5       9.822  12.944  21.634  0.00  0.00    +0.134 A 
ATOM     69  CE1 TYR A   5       9.588  11.946  20.710  0.00  0.00    +0.036 A 
ATOM     70  CD1 TYR A   5       9.364  12.278  19.378  0.00  0.00    -0.001 A 
BRANCH  68  71
ATOM     71  OH  TYR A   5      10.080  12.580  22.938  0.00  0.00    -0.506 OA
ATOM     72  HH  TYR A   5      10.227  13.393  23.483  0.00  0.00    +0.292 HD
ENDBRANCH  68  71
ENDBRANCH  64  65
ENDBRANCH   1  64
TORSDOF 27
REMARK  Name = ../refined-set-2016/4bqg/4bqg_pocket.pdb
REMARK  221 active torsions:
REMARK  status: ('A' for Active; 'I' for Inactive)
REMARK    1  A    between atoms: _1  and  _3
REMARK    2  A    between atoms: _3  and  _4
REMARK    3  A    between atoms: _3  and  _6
REMARK    4  A    between atoms: _6  and  _7
REMARK    5  A    between atoms: _13  and  _15
REMARK    6  A    between atoms: _15  and  _16
REMARK    7  A    between atoms: _15  and  _18
REMARK    8  A    between atoms: _18  and  _19
REMARK    9  A    between atoms: _22  and  _24
REMARK   10  A    between atoms: _24  and  _25
REMARK   11  A    between atoms: _24  and  _27
REMARK   12  A    between atoms: _27  and  _28
REMARK   13  A    between atoms: _28  and  _29
REMARK   14  A    between atoms: _31  and  _33
REMARK   15  A    between atoms: _33  and  _34
REMARK   16  A    between atoms: _33  and  _36
REMARK   17  A    between atoms: _36  and  _37
REMARK   18  A    between atoms: _43  and  _45
REMARK   19  A    between atoms: _45  and  _46
REMARK   20  A    between atoms: _45  and  _48
REMARK   21  A    between atoms: _48  and  _49
REMARK   22  A    between atoms: _52  and  _54
REMARK   23  A    between atoms: _54  and  _55
REMARK   24  A    between atoms: _54  and  _57
REMARK   25  A    between atoms: _57  and  _58
REMARK   26  A    between atoms: _58  and  _59
REMARK   27  A    between atoms: _62  and  _64
REMARK   28  A    between atoms: _64  and  _65
REMARK   29  A    between atoms: _64  and  _67
REMARK   30  A    between atoms: _67  and  _68
REMARK   31  A    between atoms: _71  and  _73
REMARK   32  A    between atoms: _73  and  _74
REMARK   33  A    between atoms: _73  and  _76
REMARK   34  A    between atoms: _76  and  _77
REMARK   35  A    between atoms: _80  and  _82
REMARK   36  A    between atoms: _82  and  _83
REMARK   37  A    between atoms: _82  and  _85
REMARK   38  A    between atoms: _85  and  _86
REMARK   39  A    between atoms: _88  and  _90
REMARK   40  A    between atoms: _90  and  _91
REMARK   41  A    between atoms: _90  and  _93
REMARK   42  A    between atoms: _93  and  _94
REMARK   43  A    between atoms: _99  and  _101
REMARK   44  A    between atoms: _101  and  _102
REMARK   45  A    between atoms: _101  and  _104
REMARK   46  A    between atoms: _104  and  _105
REMARK   47  A    between atoms: _107  and  _109
REMARK   48  A    between atoms: _109  and  _110
REMARK   49  A    between atoms: _109  and  _112
REMARK   50  A    between atoms: _112  and  _113
REMARK   51  A    between atoms: _115  and  _117
REMARK   52  A    between atoms: _117  and  _118
REMARK   53  A    between atoms: _117  and  _120
REMARK   54  A    between atoms: _120  and  _121
REMARK   55  A    between atoms: _124  and  _126
REMARK   56  A    between atoms: _126  and  _127
REMARK   57  A    between atoms: _130  and  _132
REMARK   58  A    between atoms: _132  and  _133
REMARK   59  A    between atoms: _132  and  _135
REMARK   60  A    between atoms: _135  and  _136
REMARK   61  A    between atoms: _139  and  _141
REMARK   62  A    between atoms: _141  and  _142
REMARK   63  A    between atoms: _141  and  _144
REMARK   64  A    between atoms: _144  and  _145
REMARK   65  A    between atoms: _145  and  _146
REMARK   66  A    between atoms: _146  and  _147
REMARK   67  A    between atoms: _147  and  _148
REMARK   68  A    between atoms: _152  and  _154
REMARK   69  A    between atoms: _154  and  _155
REMARK   70  A    between atoms: _154  and  _157
REMARK   71  A    between atoms: _157  and  _158
REMARK   72  A    between atoms: _161  and  _163
REMARK   73  A    between atoms: _163  and  _164
REMARK   74  A    between atoms: _163  and  _166
REMARK   75  A    between atoms: _169  and  _171
REMARK   76  A    between atoms: _171  and  _172
REMARK   77  A    between atoms: _171  and  _174
REMARK   78  A    between atoms: _174  and  _175
REMARK   79  A    between atoms: _178  and  _180
REMARK   80  A    between atoms: _180  and  _181
REMARK   81  A    between atoms: _180  and  _183
REMARK   82  A    between atoms: _183  and  _184
REMARK   83  A    between atoms: _187  and  _189
REMARK   84  A    between atoms: _189  and  _190
REMARK   85  A    between atoms: _192  and  _194
REMARK   86  A    between atoms: _194  and  _195
REMARK   87  A    between atoms: _194  and  _197
REMARK   88  A    between atoms: _197  and  _198
REMARK   89  A    between atoms: _201  and  _203
REMARK   90  A    between atoms: _203  and  _204
REMARK   91  A    between atoms: _206  and  _208
REMARK   92  A    between atoms: _208  and  _209
REMARK   93  A    between atoms: _208  and  _211
REMARK   94  A    between atoms: _211  and  _212
REMARK   95  A    between atoms: _212  and  _213
REMARK   96  A    between atoms: _215  and  _217
REMARK   97  A    between atoms: _217  and  _218
REMARK   98  A    between atoms: _217  and  _220
REMARK   99  A    between atoms: _220  and  _221
REMARK  100  A    between atoms: _224  and  _226
REMARK  101  A    between atoms: _226  and  _227
REMARK  102  A    between atoms: _226  and  _229
REMARK  103  A    between atoms: _229  and  _230
REMARK  104  A    between atoms: _233  and  _235
REMARK  105  A    between atoms: _235  and  _236
REMARK  106  A    between atoms: _235  and  _238
REMARK  107  A    between atoms: _238  and  _239
REMARK  108  A    between atoms: _242  and  _244
REMARK  109  A    between atoms: _244  and  _245
REMARK  110  A    between atoms: _244  and  _247
REMARK  111  A    between atoms: _247  and  _248
REMARK  112  A    between atoms: _253  and  _255
REMARK  113  A    between atoms: _255  and  _256
REMARK  114  A    between atoms: _255  and  _258
REMARK  115  A    between atoms: _258  and  _259
REMARK  116  A    between atoms: _262  and  _264
REMARK  117  A    between atoms: _264  and  _265
REMARK  118  A    between atoms: _267  and  _269
REMARK  119  A    between atoms: _269  and  _270
REMARK  120  A    between atoms: _269  and  _272
REMARK  121  A    between atoms: _272  and  _273
REMARK  122  A    between atoms: _276  and  _278
REMARK  123  A    between atoms: _278  and  _279
REMARK  124  A    between atoms: _282  and  _284
REMARK  125  A    between atoms: _284  and  _285
REMARK  126  A    between atoms: _287  and  _289
REMARK  127  A    between atoms: _289  and  _290
REMARK  128  A    between atoms: _289  and  _292
REMARK  129  A    between atoms: _295  and  _297
REMARK  130  A    between atoms: _297  and  _298
REMARK  131  A    between atoms: _300  and  _302
REMARK  132  A    between atoms: _302  and  _303
REMARK  133  A    between atoms: _302  and  _305
REMARK  134  A    between atoms: _305  and  _306
REMARK  135  A    between atoms: _312  and  _314
REMARK  136  A    between atoms: _314  and  _315
REMARK  137  A    between atoms: _314  and  _317
REMARK  138  A    between atoms: _317  and  _318
REMARK  139  A    between atoms: _323  and  _324
REMARK  140  A    between atoms: _326  and  _328
REMARK  141  A    between atoms: _328  and  _329
REMARK  142  A    between atoms: _328  and  _331
REMARK  143  A    between atoms: _331  and  _332
REMARK  144  A    between atoms: _334  and  _336
REMARK  145  A    between atoms: _336  and  _337
REMARK  146  A    between atoms: _340  and  _342
REMARK  147  A    between atoms: _342  and  _343
REMARK  148  A    between atoms: _342  and  _345
REMARK  149  A    between atoms: _345  and  _346
REMARK  150  A    between atoms: _351  and  _352
REMARK  151  A    between atoms: _354  and  _356
REMARK  152  A    between atoms: _356  and  _357
REMARK  153  A    between atoms: _356  and  _359
REMARK  154  A    between atoms: _362  and  _364
REMARK  155  A    between atoms: _364  and  _365
REMARK  156  A    between atoms: _364  and  _367
REMARK  157  A    between atoms: _367  and  _368
REMARK  158  A    between atoms: _371  and  _373
REMARK  159  A    between atoms: _373  and  _374
REMARK  160  A    between atoms: _373  and  _376
REMARK  161  A    between atoms: _379  and  _381
REMARK  162  A    between atoms: _381  and  _382
REMARK  163  A    between atoms: _381  and  _384
REMARK  164  A    between atoms: _384  and  _385
REMARK  165  A    between atoms: _388  and  _390
REMARK  166  A    between atoms: _390  and  _391
REMARK  167  A    between atoms: _390  and  _393
REMARK  168  A    between atoms: _393  and  _394
REMARK  169  A    between atoms: _397  and  _399
REMARK  170  A    between atoms: _399  and  _400
REMARK  171  A    between atoms: _399  and  _402
REMARK  172  A    between atoms: _402  and  _403
REMARK  173  A    between atoms: _403  and  _404
REMARK  174  A    between atoms: _404  and  _405
REMARK  175  A    between atoms: _405  and  _406
REMARK  176  A    between atoms: _410  and  _412
REMARK  177  A    between atoms: _412  and  _413
REMARK  178  A    between atoms: _416  and  _418
REMARK  179  A    between atoms: _418  and  _419
REMARK  180  A    between atoms: _418  and  _421
REMARK  181  A    between atoms: _421  and  _422
REMARK  182  A    between atoms: _432  and  _434
REMARK  183  A    between atoms: _434  and  _435
REMARK  184  A    between atoms: _434  and  _437
REMARK  185  A    between atoms: _437  and  _438
REMARK  186  A    between atoms: _438  and  _439
REMARK  187  A    between atoms: _442  and  _444
REMARK  188  A    between atoms: _444  and  _445
REMARK  189  A    between atoms: _444  and  _447
REMARK  190  A    between atoms: _447  and  _448
REMARK  191  A    between atoms: _450  and  _452
REMARK  192  A    between atoms: _452  and  _453
REMARK  193  A    between atoms: _452  and  _455
REMARK  194  A    between atoms: _455  and  _456
REMARK  195  A    between atoms: _462  and  _464
REMARK  196  A    between atoms: _464  and  _465
REMARK  197  A    between atoms: _464  and  _467
REMARK  198  A    between atoms: _467  and  _468
REMARK  199  A    between atoms: _471  and  _473
REMARK  200  A    between atoms: _473  and  _474
REMARK  201  A    between atoms: _473  and  _476
REMARK  202  A    between atoms: _479  and  _481
REMARK  203  A    between atoms: _481  and  _482
REMARK  204  A    between atoms: _484  and  _486
REMARK  205  A    between atoms: _486  and  _487
REMARK  206  A    between atoms: _486  and  _489
REMARK  207  A    between atoms: _489  and  _490
REMARK  208  A    between atoms: _493  and  _495
REMARK  209  A    between atoms: _495  and  _496
REMARK  210  A    between atoms: _495  and  _498
REMARK  211  A    between atoms: _498  and  _499
REMARK  212  A    between atoms: _499  and  _500
REMARK  213  A    between atoms: _500  and  _501
REMARK  214  A    between atoms: _501  and  _502
REMARK  215  A    between atoms: _506  and  _508
REMARK  216  A    between atoms: _508  and  _509
REMARK  217  A    between atoms: _508  and  _511
REMARK  218  A    between atoms: _514  and  _516
REMARK  219  A    between atoms: _516  and  _517
REMARK  220  A    between atoms: _516  and  _519
REMARK  221  A    between atoms: _519  and  _520
REMARK                            x       y       z     vdW  Elec       q    Type
REMARK                         _______ _______ _______ _____ _____    ______ ____
ROOT
ATOM      1  CA  ILE A   4      -1.607  20.074  29.080  0.00  0.00    +0.149 C 
ENDROOT
BRANCH   1   4
ATOM      2  C   VAL A   3       0.278  19.932  27.541  0.00  0.00    +0.241 C 
ATOM      3  O   VAL A   3       1.094  20.084  28.454  0.00  0.00    -0.273 OA
ATOM      4  N   ILE A   4      -1.037  19.961  27.733  0.00  0.00    -0.297 N 
ATOM      5  H   ILE A   4      -1.674  19.902  26.913  0.00  0.00    +0.150 HD
BRANCH   2   6
ATOM      6  CA  VAL A   3       0.759  19.706  26.122  0.00  0.00    +0.149 C 
BRANCH   6   8
ATOM      7  C   THR A   2       1.137  21.603  24.638  0.00  0.00    +0.243 C 
ATOM      8  N   VAL A   3       1.514  20.910  25.707  0.00  0.00    -0.297 N 
ATOM      9  H   VAL A   3       2.344  21.215  26.255  0.00  0.00    +0.150 HD
ATOM     10  O   THR A   2       0.163  21.288  23.962  0.00  0.00    -0.273 OA
BRANCH   7  11
ATOM     11  CA  THR A   2       1.945  22.866  24.275  0.00  0.00    +0.176 C 
BRANCH  11  14
ATOM     12  C   VAL A   1       3.484  22.720  22.399  0.00  0.00    +0.238 C 
ATOM     13  O   VAL A   1       4.481  22.762  23.125  0.00  0.00    -0.274 OA
ATOM     14  N   THR A   2       2.234  22.871  22.853  0.00  0.00    -0.295 N 
ATOM     15  H   THR A   2       1.456  22.994  22.174  0.00  0.00    +0.150 HD
BRANCH  12  16
ATOM     16  CA  VAL A   1       3.633  22.533  20.907  0.00  0.00    +0.145 C 
BRANCH  16  17
ATOM     17  CB  VAL A   1       4.005  21.064  20.579  0.00  0.00    +0.025 C 
ATOM     18  CG2 VAL A   1       2.917  20.139  21.113  0.00  0.00    +0.002 C 
ATOM     19  CG1 VAL A   1       4.184  20.897  19.054  0.00  0.00    +0.002 C 
ENDBRANCH  16  17
BRANCH  16  20
ATOM     20  N   VAL A   1       4.653  23.476  20.429  0.00  0.00    -0.238 NA
ATOM     21  H   VAL A   1       5.614  23.441  20.824  0.00  0.00    +0.142 HD
ENDBRANCH  16  20
ENDBRANCH  12  16
ENDBRANCH  11  14
BRANCH  11  22
ATOM     22  CB  THR A   2       1.133  24.122  24.666  0.00  0.00    +0.137 C 
ATOM     23  CG2 THR A   2       0.999  24.206  26.210  0.00  0.00    +0.034 C 
BRANCH  22  24
ATOM     24  OG1 THR A   2       1.806  25.279  24.162  0.00  0.00    -0.382 OA
ATOM     25  HG1 THR A   2       2.713  25.329  24.555  0.00  0.00    +0.210 HD
ENDBRANCH  22  24
ENDBRANCH  11  22
ENDBRANCH   7  11
ENDBRANCH   6   8
BRANCH   6  26
ATOM     26  CB  VAL A   3       1.633  18.415  26.060  0.00  0.00    +0.027 C 
ATOM     27  CG2 VAL A   3       0.839  17.202  26.536  0.00  0.00    +0.002 C 
ATOM     28  CG1 VAL A   3       2.152  18.165  24.640  0.00  0.00    +0.002 C 
ENDBRANCH   6  26
ENDBRANCH   2   6
ENDBRANCH   1   4
BRANCH   1  29
ATOM     29  C   ILE A   4      -2.147  18.705  29.477  0.00  0.00    +0.241 C 
ATOM     30  N   THR A   5      -1.766  18.211  30.654  0.00  0.00    -0.295 N 
ATOM     31  H   THR A   5      -1.250  18.803  31.335  0.00  0.00    +0.150 HD
ATOM     32  O   ILE A   4      -2.914  18.103  28.722  0.00  0.00    -0.273 OA
BRANCH  30  33
ATOM     33  CA  THR A   5      -2.086  16.829  30.967  0.00  0.00    +0.176 C 
BRANCH  33  34
ATOM     34  C   THR A   5      -2.375  16.645  32.459  0.00  0.00    +0.243 C 
ATOM     35  O   THR A   5      -1.789  17.324  33.308  0.00  0.00    -0.273 OA
ATOM     36  N   LYS A   6      -3.258  15.703  32.759  0.00  0.00    -0.298 N 
ATOM     37  H   LYS A   6      -3.709  15.181  31.981  0.00  0.00    +0.150 HD
BRANCH  36  38
ATOM     38  CA  LYS A   6      -3.630  15.362  34.137  0.00  0.00    +0.137 C 
BRANCH  38  39
ATOM     39  C   LYS A   6      -3.781  13.837  34.244  0.00  0.00    +0.227 C 
ATOM     40  O   LYS A   6      -4.604  13.242  33.556  0.00  0.00    -0.286 OA
ENDBRANCH  38  39
BRANCH  38  41
ATOM     41  CB  LYS A   6      -4.970  16.055  34.483  0.00  0.00    +0.028 C 
BRANCH  41  42
ATOM     42  CG  LYS A   6      -5.529  15.607  35.854  0.00  0.00    -0.000 C 
BRANCH  42  43
ATOM     43  CD  LYS A   6      -4.746  16.246  37.000  0.00  0.00    -0.024 C 
BRANCH  43  44
ATOM     44  CE  LYS A   6      -5.408  15.976  38.375  0.00  0.00    -0.086 C 
BRANCH  44  45
ATOM     45  NZ  LYS A   6      -5.427  14.525  38.723  0.00  0.00    +0.380 N 
ATOM     46  HZ1 LYS A   6      -5.880  14.398  39.651  0.00  0.00    -0.089 HD
ATOM     47  HZ2 LYS A   6      -4.452  14.166  38.760  0.00  0.00    -0.089 HD
ATOM     48  HZ3 LYS A   6      -5.963  14.003  38.000  0.00  0.00    -0.089 HD
ENDBRANCH  44  45
ENDBRANCH  43  44
ENDBRANCH  42  43
ENDBRANCH  41  42
ENDBRANCH  38  41
ENDBRANCH  36  38
ENDBRANCH  33  34
BRANCH  33  49
ATOM     49  CB  THR A   5      -0.936  15.894  30.476  0.00  0.00    +0.137 C 
ATOM     50  CG2 THR A   5       0.307  16.056  31.307  0.00  0.00    +0.034 C 
BRANCH  49  51
ATOM     51  OG1 THR A   5      -1.330  14.527  30.503  0.00  0.00    -0.382 OA
ATOM     52  HG1 THR A   5      -2.114  14.399  29.912  0.00  0.00    +0.210 HD
ENDBRANCH  49  51
ENDBRANCH  33  49
ENDBRANCH  30  33
ENDBRANCH   1  29
BRANCH   1  53
ATOM     53  CB  ILE A   4      -2.802  21.052  29.106  0.00  0.00    +0.027 C 
ATOM     54  CG2 ILE A   4      -3.342  21.251  30.542  0.00  0.00    +0.002 C 
BRANCH  53  55
ATOM     55  CG1 ILE A   4      -2.444  22.369  28.415  0.00  0.00    +0.002 C 
ATOM     56  CD1 ILE A   4      -1.380  23.170  29.125  0.00  0.00    +0.000 C 
ENDBRANCH  53  55
ENDBRANCH   1  53
TORSDOF 25
REMARK  Name = ../refined-set-2016/4bqg/4bqg_pocket.pdb
REMARK  221 active torsions:
REMARK  status: ('A' for Active; 'I' for Inactive)
REMARK    1  A    between atoms: _1  and  _3
REMARK    2  A    between atoms: _3  and  _4
REMARK    3  A    between atoms: _3  and  _6
REMARK    4  A    between atoms: _6  and  _7
REMARK    5  A    between atoms: _13  and  _15
REMARK    6  A    between atoms: _15  and  _16
REMARK    7  A    between atoms: _15  and  _18
REMARK    8  A    between atoms: _18  and  _19
REMARK    9  A    between atoms: _22  and  _24
REMARK   10  A    between atoms: _24  and  _25
REMARK   11  A    between atoms: _24  and  _27
REMARK   12  A    between atoms: _27  and  _28
REMARK   13  A    between atoms: _28  and  _29
REMARK   14  A    between atoms: _31  and  _33
REMARK   15  A    between atoms: _33  and  _34
REMARK   16  A    between atoms: _33  and  _36
REMARK   17  A    between atoms: _36  and  _37
REMARK   18  A    between atoms: _43  and  _45
REMARK   19  A    between atoms: _45  and  _46
REMARK   20  A    between atoms: _45  and  _48
REMARK   21  A    between atoms: _48  and  _49
REMARK   22  A    between atoms: _52  and  _54
REMARK   23  A    between atoms: _54  and  _55
REMARK   24  A    between atoms: _54  and  _57
REMARK   25  A    between atoms: _57  and  _58
REMARK   26  A    between atoms: _58  and  _59
REMARK   27  A    between atoms: _62  and  _64
REMARK   28  A    between atoms: _64  and  _65
REMARK   29  A    between atoms: _64  and  _67
REMARK   30  A    between atoms: _67  and  _68
REMARK   31  A    between atoms: _71  and  _73
REMARK   32  A    between atoms: _73  and  _74
REMARK   33  A    between atoms: _73  and  _76
REMARK   34  A    between atoms: _76  and  _77
REMARK   35  A    between atoms: _80  and  _82
REMARK   36  A    between atoms: _82  and  _83
REMARK   37  A    between atoms: _82  and  _85
REMARK   38  A    between atoms: _85  and  _86
REMARK   39  A    between atoms: _88  and  _90
REMARK   40  A    between atoms: _90  and  _91
REMARK   41  A    between atoms: _90  and  _93
REMARK   42  A    between atoms: _93  and  _94
REMARK   43  A    between atoms: _99  and  _101
REMARK   44  A    between atoms: _101  and  _102
REMARK   45  A    between atoms: _101  and  _104
REMARK   46  A    between atoms: _104  and  _105
REMARK   47  A    between atoms: _107  and  _109
REMARK   48  A    between atoms: _109  and  _110
REMARK   49  A    between atoms: _109  and  _112
REMARK   50  A    between atoms: _112  and  _113
REMARK   51  A    between atoms: _115  and  _117
REMARK   52  A    between atoms: _117  and  _118
REMARK   53  A    between atoms: _117  and  _120
REMARK   54  A    between atoms: _120  and  _121
REMARK   55  A    between atoms: _124  and  _126
REMARK   56  A    between atoms: _126  and  _127
REMARK   57  A    between atoms: _130  and  _132
REMARK   58  A    between atoms: _132  and  _133
REMARK   59  A    between atoms: _132  and  _135
REMARK   60  A    between atoms: _135  and  _136
REMARK   61  A    between atoms: _139  and  _141
REMARK   62  A    between atoms: _141  and  _142
REMARK   63  A    between atoms: _141  and  _144
REMARK   64  A    between atoms: _144  and  _145
REMARK   65  A    between atoms: _145  and  _146
REMARK   66  A    between atoms: _146  and  _147
REMARK   67  A    between atoms: _147  and  _148
REMARK   68  A    between atoms: _152  and  _154
REMARK   69  A    between atoms: _154  and  _155
REMARK   70  A    between atoms: _154  and  _157
REMARK   71  A    between atoms: _157  and  _158
REMARK   72  A    between atoms: _161  and  _163
REMARK   73  A    between atoms: _163  and  _164
REMARK   74  A    between atoms: _163  and  _166
REMARK   75  A    between atoms: _169  and  _171
REMARK   76  A    between atoms: _171  and  _172
REMARK   77  A    between atoms: _171  and  _174
REMARK   78  A    between atoms: _174  and  _175
REMARK   79  A    between atoms: _178  and  _180
REMARK   80  A    between atoms: _180  and  _181
REMARK   81  A    between atoms: _180  and  _183
REMARK   82  A    between atoms: _183  and  _184
REMARK   83  A    between atoms: _187  and  _189
REMARK   84  A    between atoms: _189  and  _190
REMARK   85  A    between atoms: _192  and  _194
REMARK   86  A    between atoms: _194  and  _195
REMARK   87  A    between atoms: _194  and  _197
REMARK   88  A    between atoms: _197  and  _198
REMARK   89  A    between atoms: _201  and  _203
REMARK   90  A    between atoms: _203  and  _204
REMARK   91  A    between atoms: _206  and  _208
REMARK   92  A    between atoms: _208  and  _209
REMARK   93  A    between atoms: _208  and  _211
REMARK   94  A    between atoms: _211  and  _212
REMARK   95  A    between atoms: _212  and  _213
REMARK   96  A    between atoms: _215  and  _217
REMARK   97  A    between atoms: _217  and  _218
REMARK   98  A    between atoms: _217  and  _220
REMARK   99  A    between atoms: _220  and  _221
REMARK  100  A    between atoms: _224  and  _226
REMARK  101  A    between atoms: _226  and  _227
REMARK  102  A    between atoms: _226  and  _229
REMARK  103  A    between atoms: _229  and  _230
REMARK  104  A    between atoms: _233  and  _235
REMARK  105  A    between atoms: _235  and  _236
REMARK  106  A    between atoms: _235  and  _238
REMARK  107  A    between atoms: _238  and  _239
REMARK  108  A    between atoms: _242  and  _244
REMARK  109  A    between atoms: _244  and  _245
REMARK  110  A    between atoms: _244  and  _247
REMARK  111  A    between atoms: _247  and  _248
REMARK  112  A    between atoms: _253  and  _255
REMARK  113  A    between atoms: _255  and  _256
REMARK  114  A    between atoms: _255  and  _258
REMARK  115  A    between atoms: _258  and  _259
REMARK  116  A    between atoms: _262  and  _264
REMARK  117  A    between atoms: _264  and  _265
REMARK  118  A    between atoms: _267  and  _269
REMARK  119  A    between atoms: _269  and  _270
REMARK  120  A    between atoms: _269  and  _272
REMARK  121  A    between atoms: _272  and  _273
REMARK  122  A    between atoms: _276  and  _278
REMARK  123  A    between atoms: _278  and  _279
REMARK  124  A    between atoms: _282  and  _284
REMARK  125  A    between atoms: _284  and  _285
REMARK  126  A    between atoms: _287  and  _289
REMARK  127  A    between atoms: _289  and  _290
REMARK  128  A    between atoms: _289  and  _292
REMARK  129  A    between atoms: _295  and  _297
REMARK  130  A    between atoms: _297  and  _298
REMARK  131  A    between atoms: _300  and  _302
REMARK  132  A    between atoms: _302  and  _303
REMARK  133  A    between atoms: _302  and  _305
REMARK  134  A    between atoms: _305  and  _306
REMARK  135  A    between atoms: _312  and  _314
REMARK  136  A    between atoms: _314  and  _315
REMARK  137  A    between atoms: _314  and  _317
REMARK  138  A    between atoms: _317  and  _318
REMARK  139  A    between atoms: _323  and  _324
REMARK  140  A    between atoms: _326  and  _328
REMARK  141  A    between atoms: _328  and  _329
REMARK  142  A    between atoms: _328  and  _331
REMARK  143  A    between atoms: _331  and  _332
REMARK  144  A    between atoms: _334  and  _336
REMARK  145  A    between atoms: _336  and  _337
REMARK  146  A    between atoms: _340  and  _342
REMARK  147  A    between atoms: _342  and  _343
REMARK  148  A    between atoms: _342  and  _345
REMARK  149  A    between atoms: _345  and  _346
REMARK  150  A    between atoms: _351  and  _352
REMARK  151  A    between atoms: _354  and  _356
REMARK  152  A    between atoms: _356  and  _357
REMARK  153  A    between atoms: _356  and  _359
REMARK  154  A    between atoms: _362  and  _364
REMARK  155  A    between atoms: _364  and  _365
REMARK  156  A    between atoms: _364  and  _367
REMARK  157  A    between atoms: _367  and  _368
REMARK  158  A    between atoms: _371  and  _373
REMARK  159  A    between atoms: _373  and  _374
REMARK  160  A    between atoms: _373  and  _376
REMARK  161  A    between atoms: _379  and  _381
REMARK  162  A    between atoms: _381  and  _382
REMARK  163  A    between atoms: _381  and  _384
REMARK  164  A    between atoms: _384  and  _385
REMARK  165  A    between atoms: _388  and  _390
REMARK  166  A    between atoms: _390  and  _391
REMARK  167  A    between atoms: _390  and  _393
REMARK  168  A    between atoms: _393  and  _394
REMARK  169  A    between atoms: _397  and  _399
REMARK  170  A    between atoms: _399  and  _400
REMARK  171  A    between atoms: _399  and  _402
REMARK  172  A    between atoms: _402  and  _403
REMARK  173  A    between atoms: _403  and  _404
REMARK  174  A    between atoms: _404  and  _405
REMARK  175  A    between atoms: _405  and  _406
REMARK  176  A    between atoms: _410  and  _412
REMARK  177  A    between atoms: _412  and  _413
REMARK  178  A    between atoms: _416  and  _418
REMARK  179  A    between atoms: _418  and  _419
REMARK  180  A    between atoms: _418  and  _421
REMARK  181  A    between atoms: _421  and  _422
REMARK  182  A    between atoms: _432  and  _434
REMARK  183  A    between atoms: _434  and  _435
REMARK  184  A    between atoms: _434  and  _437
REMARK  185  A    between atoms: _437  and  _438
REMARK  186  A    between atoms: _438  and  _439
REMARK  187  A    between atoms: _442  and  _444
REMARK  188  A    between atoms: _444  and  _445
REMARK  189  A    between atoms: _444  and  _447
REMARK  190  A    between atoms: _447  and  _448
REMARK  191  A    between atoms: _450  and  _452
REMARK  192  A    between atoms: _452  and  _453
REMARK  193  A    between atoms: _452  and  _455
REMARK  194  A    between atoms: _455  and  _456
REMARK  195  A    between atoms: _462  and  _464
REMARK  196  A    between atoms: _464  and  _465
REMARK  197  A    between atoms: _464  and  _467
REMARK  198  A    between atoms: _467  and  _468
REMARK  199  A    between atoms: _471  and  _473
REMARK  200  A    between atoms: _473  and  _474
REMARK  201  A    between atoms: _473  and  _476
REMARK  202  A    between atoms: _479  and  _481
REMARK  203  A    between atoms: _481  and  _482
REMARK  204  A    between atoms: _484  and  _486
REMARK  205  A    between atoms: _486  and  _487
REMARK  206  A    between atoms: _486  and  _489
REMARK  207  A    between atoms: _489  and  _490
REMARK  208  A    between atoms: _493  and  _495
REMARK  209  A    between atoms: _495  and  _496
REMARK  210  A    between atoms: _495  and  _498
REMARK  211  A    between atoms: _498  and  _499
REMARK  212  A    between atoms: _499  and  _500
REMARK  213  A    between atoms: _500  and  _501
REMARK  214  A    between atoms: _501  and  _502
REMARK  215  A    between atoms: _506  and  _508
REMARK  216  A    between atoms: _508  and  _509
REMARK  217  A    between atoms: _508  and  _511
REMARK  218  A    between atoms: _514  and  _516
REMARK  219  A    between atoms: _516  and  _517
REMARK  220  A    between atoms: _516  and  _519
REMARK  221  A    between atoms: _519  and  _520
REMARK                            x       y       z     vdW  Elec       q    Type
REMARK                         _______ _______ _______ _____ _____    ______ ____
ROOT
ATOM      1  CA  TRP A   2       4.796  20.782  28.926  0.00  0.00    +0.153 C 
ENDROOT
BRANCH   1   4
ATOM      2  C   ALA A   1       3.322  21.734  30.660  0.00  0.00    +0.238 C 
ATOM      3  O   ALA A   1       4.259  22.160  31.338  0.00  0.00    -0.274 OA
ATOM      4  N   TRP A   2       3.499  20.990  29.577  0.00  0.00    -0.297 N 
ATOM      5  H   TRP A   2       2.666  20.525  29.163  0.00  0.00    +0.150 HD
BRANCH   2   6
ATOM      6  CA  ALA A   1       1.883  21.964  31.081  0.00  0.00    +0.145 C 
ATOM      7  CB  ALA A   1       1.530  23.442  30.985  0.00  0.00    +0.028 C 
BRANCH   6   8
ATOM      8  N   ALA A   1       1.724  21.488  32.458  0.00  0.00    -0.238 NA
ATOM      9  H   ALA A   1       2.295  21.925  33.209  0.00  0.00    +0.142 HD
ENDBRANCH   6   8
ENDBRANCH   2   6
ENDBRANCH   1   4
BRANCH   1  10
ATOM     10  C   TRP A   2       4.754  21.647  27.704  0.00  0.00    +0.241 C 
ATOM     11  N   GLU A   3       5.891  22.204  27.293  0.00  0.00    -0.297 N 
ATOM     12  H   GLU A   3       6.774  22.002  27.804  0.00  0.00    +0.150 HD
ATOM     13  O   TRP A   2       3.680  21.834  27.108  0.00  0.00    -0.273 OA
BRANCH  11  14
ATOM     14  CA  GLU A   3       5.917  23.096  26.133  0.00  0.00    +0.149 C 
BRANCH  14  15
ATOM     15  C   GLU A   3       7.252  23.120  25.430  0.00  0.00    +0.241 C 
ATOM     16  O   GLU A   3       8.291  23.034  26.083  0.00  0.00    -0.273 OA
ATOM     17  N   SER A   4       7.251  23.235  24.091  0.00  0.00    -0.296 N 
ATOM     18  H   SER A   4       6.355  23.306  23.567  0.00  0.00    +0.150 HD
BRANCH  17  19
ATOM     19  CA  SER A   4       8.534  23.259  23.380  0.00  0.00    +0.166 C 
BRANCH  19  20
ATOM     20  C   SER A   4       8.386  23.831  21.997  0.00  0.00    +0.229 C 
ATOM     21  O   SER A   4       7.471  23.483  21.257  0.00  0.00    -0.286 OA
ENDBRANCH  19  20
BRANCH  19  22
ATOM     22  CB  SER A   4       9.231  21.889  23.334  0.00  0.00    +0.165 C 
BRANCH  22  23
ATOM     23  OG  SER A   4      10.486  21.989  22.645  0.00  0.00    -0.380 OA
ATOM     24  H   SER A   4      11.070  22.633  23.118  0.00  0.00    +0.211 HD
ENDBRANCH  22  23
ENDBRANCH  19  22
ENDBRANCH  17  19
ENDBRANCH  14  15
BRANCH  14  25
ATOM     25  CB  GLU A   3       5.561  24.524  26.573  0.00  0.00    +0.041 C 
BRANCH  25  26
ATOM     26  CG  GLU A   3       5.320  25.481  25.411  0.00  0.00    +0.116 C 
BRANCH  26  27
ATOM     27  CD  GLU A   3       4.596  26.746  25.846  0.00  0.00    +0.365 C 
ATOM     28  OE2 GLU A   3       5.250  27.634  26.426  0.00  0.00    -0.246 OA
ATOM     29  OE1 GLU A   3       3.379  26.850  25.593  0.00  0.00    -0.246 OA
ENDBRANCH  26  27
ENDBRANCH  25  26
ENDBRANCH  14  25
ENDBRANCH  11  14
ENDBRANCH   1  10
BRANCH   1  30
ATOM     30  CB  TRP A   2       4.901  19.296  28.540  0.00  0.00    +0.057 C 
BRANCH  30  31
ATOM     31  CG  TRP A   2       6.063  18.820  27.688  0.00  0.00    -0.002 A 
ATOM     32  CD1 TRP A   2       7.161  18.063  28.100  0.00  0.00    +0.068 A 
ATOM     33  NE1 TRP A   2       7.982  17.775  27.031  0.00  0.00    -0.352 N 
ATOM     34  HE1 TRP A   2       8.858  17.218  27.094  0.00  0.00    +0.166 HD
ATOM     35  CE2 TRP A   2       7.495  18.315  25.884  0.00  0.00    +0.056 A 
ATOM     36  CZ2 TRP A   2       7.973  18.265  24.579  0.00  0.00    +0.017 A 
ATOM     37  CH2 TRP A   2       7.219  18.913  23.588  0.00  0.00    +0.001 A 
ATOM     38  CZ3 TRP A   2       6.037  19.584  23.886  0.00  0.00    +0.000 A 
ATOM     39  CE3 TRP A   2       5.534  19.633  25.208  0.00  0.00    +0.001 A 
ATOM     40  CD2 TRP A   2       6.252  18.997  26.225  0.00  0.00    +0.013 A 
ENDBRANCH  30  31
ENDBRANCH   1  30
TORSDOF 15
REMARK  Name = ../refined-set-2016/4bqg/4bqg_pocket.pdb
REMARK  221 active torsions:
REMARK  status: ('A' for Active; 'I' for Inactive)
REMARK    1  A    between atoms: _1  and  _3
REMARK    2  A    between atoms: _3  and  _4
REMARK    3  A    between atoms: _3  and  _6
REMARK    4  A    between atoms: _6  and  _7
REMARK    5  A    between atoms: _13  and  _15
REMARK    6  A    between atoms: _15  and  _16
REMARK    7  A    between atoms: _15  and  _18
REMARK    8  A    between atoms: _18  and  _19
REMARK    9  A    between atoms: _22  and  _24
REMARK   10  A    between atoms: _24  and  _25
REMARK   11  A    between atoms: _24  and  _27
REMARK   12  A    between atoms: _27  and  _28
REMARK   13  A    between atoms: _28  and  _29
REMARK   14  A    between atoms: _31  and  _33
REMARK   15  A    between atoms: _33  and  _34
REMARK   16  A    between atoms: _33  and  _36
REMARK   17  A    between atoms: _36  and  _37
REMARK   18  A    between atoms: _43  and  _45
REMARK   19  A    between atoms: _45  and  _46
REMARK   20  A    between atoms: _45  and  _48
REMARK   21  A    between atoms: _48  and  _49
REMARK   22  A    between atoms: _52  and  _54
REMARK   23  A    between atoms: _54  and  _55
REMARK   24  A    between atoms: _54  and  _57
REMARK   25  A    between atoms: _57  and  _58
REMARK   26  A    between atoms: _58  and  _59
REMARK   27  A    between atoms: _62  and  _64
REMARK   28  A    between atoms: _64  and  _65
REMARK   29  A    between atoms: _64  and  _67
REMARK   30  A    between atoms: _67  and  _68
REMARK   31  A    between atoms: _71  and  _73
REMARK   32  A    between atoms: _73  and  _74
REMARK   33  A    between atoms: _73  and  _76
REMARK   34  A    between atoms: _76  and  _77
REMARK   35  A    between atoms: _80  and  _82
REMARK   36  A    between atoms: _82  and  _83
REMARK   37  A    between atoms: _82  and  _85
REMARK   38  A    between atoms: _85  and  _86
REMARK   39  A    between atoms: _88  and  _90
REMARK   40  A    between atoms: _90  and  _91
REMARK   41  A    between atoms: _90  and  _93
REMARK   42  A    between atoms: _93  and  _94
REMARK   43  A    between atoms: _99  and  _101
REMARK   44  A    between atoms: _101  and  _102
REMARK   45  A    between atoms: _101  and  _104
REMARK   46  A    between atoms: _104  and  _105
REMARK   47  A    between atoms: _107  and  _109
REMARK   48  A    between atoms: _109  and  _110
REMARK   49  A    between atoms: _109  and  _112
REMARK   50  A    between atoms: _112  and  _113
REMARK   51  A    between atoms: _115  and  _117
REMARK   52  A    between atoms: _117  and  _118
REMARK   53  A    between atoms: _117  and  _120
REMARK   54  A    between atoms: _120  and  _121
REMARK   55  A    between atoms: _124  and  _126
REMARK   56  A    between atoms: _126  and  _127
REMARK   57  A    between atoms: _130  and  _132
REMARK   58  A    between atoms: _132  and  _133
REMARK   59  A    between atoms: _132  and  _135
REMARK   60  A    between atoms: _135  and  _136
REMARK   61  A    between atoms: _139  and  _141
REMARK   62  A    between atoms: _141  and  _142
REMARK   63  A    between atoms: _141  and  _144
REMARK   64  A    between atoms: _144  and  _145
REMARK   65  A    between atoms: _145  and  _146
REMARK   66  A    between atoms: _146  and  _147
REMARK   67  A    between atoms: _147  and  _148
REMARK   68  A    between atoms: _152  and  _154
REMARK   69  A    between atoms: _154  and  _155
REMARK   70  A    between atoms: _154  and  _157
REMARK   71  A    between atoms: _157  and  _158
REMARK   72  A    between atoms: _161  and  _163
REMARK   73  A    between atoms: _163  and  _164
REMARK   74  A    between atoms: _163  and  _166
REMARK   75  A    between atoms: _169  and  _171
REMARK   76  A    between atoms: _171  and  _172
REMARK   77  A    between atoms: _171  and  _174
REMARK   78  A    between atoms: _174  and  _175
REMARK   79  A    between atoms: _178  and  _180
REMARK   80  A    between atoms: _180  and  _181
REMARK   81  A    between atoms: _180  and  _183
REMARK   82  A    between atoms: _183  and  _184
REMARK   83  A    between atoms: _187  and  _189
REMARK   84  A    between atoms: _189  and  _190
REMARK   85  A    between atoms: _192  and  _194
REMARK   86  A    between atoms: _194  and  _195
REMARK   87  A    between atoms: _194  and  _197
REMARK   88  A    between atoms: _197  and  _198
REMARK   89  A    between atoms: _201  and  _203
REMARK   90  A    between atoms: _203  and  _204
REMARK   91  A    between atoms: _206  and  _208
REMARK   92  A    between atoms: _208  and  _209
REMARK   93  A    between atoms: _208  and  _211
REMARK   94  A    between atoms: _211  and  _212
REMARK   95  A    between atoms: _212  and  _213
REMARK   96  A    between atoms: _215  and  _217
REMARK   97  A    between atoms: _217  and  _218
REMARK   98  A    between atoms: _217  and  _220
REMARK   99  A    between atoms: _220  and  _221
REMARK  100  A    between atoms: _224  and  _226
REMARK  101  A    between atoms: _226  and  _227
REMARK  102  A    between atoms: _226  and  _229
REMARK  103  A    between atoms: _229  and  _230
REMARK  104  A    between atoms: _233  and  _235
REMARK  105  A    between atoms: _235  and  _236
REMARK  106  A    between atoms: _235  and  _238
REMARK  107  A    between atoms: _238  and  _239
REMARK  108  A    between atoms: _242  and  _244
REMARK  109  A    between atoms: _244  and  _245
REMARK  110  A    between atoms: _244  and  _247
REMARK  111  A    between atoms: _247  and  _248
REMARK  112  A    between atoms: _253  and  _255
REMARK  113  A    between atoms: _255  and  _256
REMARK  114  A    between atoms: _255  and  _258
REMARK  115  A    between atoms: _258  and  _259
REMARK  116  A    between atoms: _262  and  _264
REMARK  117  A    between atoms: _264  and  _265
REMARK  118  A    between atoms: _267  and  _269
REMARK  119  A    between atoms: _269  and  _270
REMARK  120  A    between atoms: _269  and  _272
REMARK  121  A    between atoms: _272  and  _273
REMARK  122  A    between atoms: _276  and  _278
REMARK  123  A    between atoms: _278  and  _279
REMARK  124  A    between atoms: _282  and  _284
REMARK  125  A    between atoms: _284  and  _285
REMARK  126  A    between atoms: _287  and  _289
REMARK  127  A    between atoms: _289  and  _290
REMARK  128  A    between atoms: _289  and  _292
REMARK  129  A    between atoms: _295  and  _297
REMARK  130  A    between atoms: _297  and  _298
REMARK  131  A    between atoms: _300  and  _302
REMARK  132  A    between atoms: _302  and  _303
REMARK  133  A    between atoms: _302  and  _305
REMARK  134  A    between atoms: _305  and  _306
REMARK  135  A    between atoms: _312  and  _314
REMARK  136  A    between atoms: _314  and  _315
REMARK  137  A    between atoms: _314  and  _317
REMARK  138  A    between atoms: _317  and  _318
REMARK  139  A    between atoms: _323  and  _324
REMARK  140  A    between atoms: _326  and  _328
REMARK  141  A    between atoms: _328  and  _329
REMARK  142  A    between atoms: _328  and  _331
REMARK  143  A    between atoms: _331  and  _332
REMARK  144  A    between atoms: _334  and  _336
REMARK  145  A    between atoms: _336  and  _337
REMARK  146  A    between atoms: _340  and  _342
REMARK  147  A    between atoms: _342  and  _343
REMARK  148  A    between atoms: _342  and  _345
REMARK  149  A    between atoms: _345  and  _346
REMARK  150  A    between atoms: _351  and  _352
REMARK  151  A    between atoms: _354  and  _356
REMARK  152  A    between atoms: _356  and  _357
REMARK  153  A    between atoms: _356  and  _359
REMARK  154  A    between atoms: _362  and  _364
REMARK  155  A    between atoms: _364  and  _365
REMARK  156  A    between atoms: _364  and  _367
REMARK  157  A    between atoms: _367  and  _368
REMARK  158  A    between atoms: _371  and  _373
REMARK  159  A    between atoms: _373  and  _374
REMARK  160  A    between atoms: _373  and  _376
REMARK  161  A    between atoms: _379  and  _381
REMARK  162  A    between atoms: _381  and  _382
REMARK  163  A    between atoms: _381  and  _384
REMARK  164  A    between atoms: _384  and  _385
REMARK  165  A    between atoms: _388  and  _390
REMARK  166  A    between atoms: _390  and  _391
REMARK  167  A    between atoms: _390  and  _393
REMARK  168  A    between atoms: _393  and  _394
REMARK  169  A    between atoms: _397  and  _399
REMARK  170  A    between atoms: _399  and  _400
REMARK  171  A    between atoms: _399  and  _402
REMARK  172  A    between atoms: _402  and  _403
REMARK  173  A    between atoms: _403  and  _404
REMARK  174  A    between atoms: _404  and  _405
REMARK  175  A    between atoms: _405  and  _406
REMARK  176  A    between atoms: _410  and  _412
REMARK  177  A    between atoms: _412  and  _413
REMARK  178  A    between atoms: _416  and  _418
REMARK  179  A    between atoms: _418  and  _419
REMARK  180  A    between atoms: _418  and  _421
REMARK  181  A    between atoms: _421  and  _422
REMARK  182  A    between atoms: _432  and  _434
REMARK  183  A    between atoms: _434  and  _435
REMARK  184  A    between atoms: _434  and  _437
REMARK  185  A    between atoms: _437  and  _438
REMARK  186  A    between atoms: _438  and  _439
REMARK  187  A    between atoms: _442  and  _444
REMARK  188  A    between atoms: _444  and  _445
REMARK  189  A    between atoms: _444  and  _447
REMARK  190  A    between atoms: _447  and  _448
REMARK  191  A    between atoms: _450  and  _452
REMARK  192  A    between atoms: _452  and  _453
REMARK  193  A    between atoms: _452  and  _455
REMARK  194  A    between atoms: _455  and  _456
REMARK  195  A    between atoms: _462  and  _464
REMARK  196  A    between atoms: _464  and  _465
REMARK  197  A    between atoms: _464  and  _467
REMARK  198  A    between atoms: _467  and  _468
REMARK  199  A    between atoms: _471  and  _473
REMARK  200  A    between atoms: _473  and  _474
REMARK  201  A    between atoms: _473  and  _476
REMARK  202  A    between atoms: _479  and  _481
REMARK  203  A    between atoms: _481  and  _482
REMARK  204  A    between atoms: _484  and  _486
REMARK  205  A    between atoms: _486  and  _487
REMARK  206  A    between atoms: _486  and  _489
REMARK  207  A    between atoms: _489  and  _490
REMARK  208  A    between atoms: _493  and  _495
REMARK  209  A    between atoms: _495  and  _496
REMARK  210  A    between atoms: _495  and  _498
REMARK  211  A    between atoms: _498  and  _499
REMARK  212  A    between atoms: _499  and  _500
REMARK  213  A    between atoms: _500  and  _501
REMARK  214  A    between atoms: _501  and  _502
REMARK  215  A    between atoms: _506  and  _508
REMARK  216  A    between atoms: _508  and  _509
REMARK  217  A    between atoms: _508  and  _511
REMARK  218  A    between atoms: _514  and  _516
REMARK  219  A    between atoms: _516  and  _517
REMARK  220  A    between atoms: _516  and  _519
REMARK  221  A    between atoms: _519  and  _520
REMARK                            x       y       z     vdW  Elec       q    Type
REMARK                         _______ _______ _______ _____ _____    ______ ____
ROOT
ATOM      1  CA  THR A   2       9.643  23.453  29.783  0.00  0.00    +0.176 C 
ENDROOT
BRANCH   1   4
ATOM      2  C   PHE A   1      11.184  22.503  28.137  0.00  0.00    +0.239 C 
ATOM      3  O   PHE A   1      12.093  22.375  28.977  0.00  0.00    -0.274 OA
ATOM      4  N   THR A   2       9.991  23.025  28.406  0.00  0.00    -0.295 N 
ATOM      5  H   THR A   2       9.294  23.134  27.642  0.00  0.00    +0.150 HD
BRANCH   2   6
ATOM      6  CA  PHE A   1      11.396  22.021  26.707  0.00  0.00    +0.149 C 
BRANCH   6   7
ATOM      7  N   PHE A   1      12.812  22.029  26.449  0.00  0.00    -0.238 NA
ATOM      8  H   PHE A   1      13.461  21.798  27.228  0.00  0.00    +0.142 HD
ENDBRANCH   6   7
BRANCH   6   9
ATOM      9  CB  PHE A   1      10.769  20.616  26.476  0.00  0.00    +0.053 C 
BRANCH   9  10
ATOM     10  CG  PHE A   1      11.228  19.540  27.427  0.00  0.00    -0.020 A 
ATOM     11  CD2 PHE A   1      10.494  19.246  28.593  0.00  0.00    -0.004 A 
ATOM     12  CE2 PHE A   1      10.906  18.215  29.441  0.00  0.00    -0.000 A 
ATOM     13  CZ  PHE A   1      12.048  17.448  29.134  0.00  0.00    -0.000 A 
ATOM     14  CE1 PHE A   1      12.776  17.727  27.988  0.00  0.00    -0.000 A 
ATOM     15  CD1 PHE A   1      12.374  18.754  27.136  0.00  0.00    -0.004 A 
ENDBRANCH   9  10
ENDBRANCH   6   9
ENDBRANCH   2   6
ENDBRANCH   1   4
BRANCH   1  16
ATOM     16  C   THR A   2       8.523  22.611  30.392  0.00  0.00    +0.243 C 
ATOM     17  N   VAL A   3       8.504  22.526  31.726  0.00  0.00    -0.298 N 
ATOM     18  H   VAL A   3       9.300  22.907  32.276  0.00  0.00    +0.150 HD
ATOM     19  O   THR A   2       7.723  22.000  29.680  0.00  0.00    -0.273 OA
BRANCH  17  20
ATOM     20  CA  VAL A   3       7.390  21.911  32.415  0.00  0.00    +0.137 C 
BRANCH  20  21
ATOM     21  CB  VAL A   3       7.727  20.499  32.935  0.00  0.00    +0.026 C 
ATOM     22  CG2 VAL A   3       6.530  19.927  33.688  0.00  0.00    +0.002 C 
ATOM     23  CG1 VAL A   3       8.119  19.552  31.787  0.00  0.00    +0.002 C 
ENDBRANCH  20  21
BRANCH  20  24
ATOM     24  C   VAL A   3       7.007  22.855  33.570  0.00  0.00    +0.227 C 
ATOM     25  O   VAL A   3       7.888  23.372  34.233  0.00  0.00    -0.286 OA
ENDBRANCH  20  24
ENDBRANCH  17  20
ENDBRANCH   1  16
BRANCH   1  26
ATOM     26  CB  THR A   2       9.272  24.927  29.833  0.00  0.00    +0.137 C 
ATOM     27  CG2 THR A   2      10.426  25.789  29.259  0.00  0.00    +0.034 C 
BRANCH  26  28
ATOM     28  OG1 THR A   2       8.097  25.158  29.048  0.00  0.00    -0.382 OA
ATOM     29  HG1 THR A   2       7.349  24.619  29.409  0.00  0.00    +0.210 HD
ENDBRANCH  26  28
ENDBRANCH   1  26
TORSDOF 11
REMARK  Name = ../refined-set-2016/4bqg/4bqg_pocket.pdb
REMARK  221 active torsions:
REMARK  status: ('A' for Active; 'I' for Inactive)
REMARK    1  A    between atoms: _1  and  _3
REMARK    2  A    between atoms: _3  and  _4
REMARK    3  A    between atoms: _3  and  _6
REMARK    4  A    between atoms: _6  and  _7
REMARK    5  A    between atoms: _13  and  _15
REMARK    6  A    between atoms: _15  and  _16
REMARK    7  A    between atoms: _15  and  _18
REMARK    8  A    between atoms: _18  and  _19
REMARK    9  A    between atoms: _22  and  _24
REMARK   10  A    between atoms: _24  and  _25
REMARK   11  A    between atoms: _24  and  _27
REMARK   12  A    between atoms: _27  and  _28
REMARK   13  A    between atoms: _28  and  _29
REMARK   14  A    between atoms: _31  and  _33
REMARK   15  A    between atoms: _33  and  _34
REMARK   16  A    between atoms: _33  and  _36
REMARK   17  A    between atoms: _36  and  _37
REMARK   18  A    between atoms: _43  and  _45
REMARK   19  A    between atoms: _45  and  _46
REMARK   20  A    between atoms: _45  and  _48
REMARK   21  A    between atoms: _48  and  _49
REMARK   22  A    between atoms: _52  and  _54
REMARK   23  A    between atoms: _54  and  _55
REMARK   24  A    between atoms: _54  and  _57
REMARK   25  A    between atoms: _57  and  _58
REMARK   26  A    between atoms: _58  and  _59
REMARK   27  A    between atoms: _62  and  _64
REMARK   28  A    between atoms: _64  and  _65
REMARK   29  A    between atoms: _64  and  _67
REMARK   30  A    between atoms: _67  and  _68
REMARK   31  A    between atoms: _71  and  _73
REMARK   32  A    between atoms: _73  and  _74
REMARK   33  A    between atoms: _73  and  _76
REMARK   34  A    between atoms: _76  and  _77
REMARK   35  A    between atoms: _80  and  _82
REMARK   36  A    between atoms: _82  and  _83
REMARK   37  A    between atoms: _82  and  _85
REMARK   38  A    between atoms: _85  and  _86
REMARK   39  A    between atoms: _88  and  _90
REMARK   40  A    between atoms: _90  and  _91
REMARK   41  A    between atoms: _90  and  _93
REMARK   42  A    between atoms: _93  and  _94
REMARK   43  A    between atoms: _99  and  _101
REMARK   44  A    between atoms: _101  and  _102
REMARK   45  A    between atoms: _101  and  _104
REMARK   46  A    between atoms: _104  and  _105
REMARK   47  A    between atoms: _107  and  _109
REMARK   48  A    between atoms: _109  and  _110
REMARK   49  A    between atoms: _109  and  _112
REMARK   50  A    between atoms: _112  and  _113
REMARK   51  A    between atoms: _115  and  _117
REMARK   52  A    between atoms: _117  and  _118
REMARK   53  A    between atoms: _117  and  _120
REMARK   54  A    between atoms: _120  and  _121
REMARK   55  A    between atoms: _124  and  _126
REMARK   56  A    between atoms: _126  and  _127
REMARK   57  A    between atoms: _130  and  _132
REMARK   58  A    between atoms: _132  and  _133
REMARK   59  A    between atoms: _132  and  _135
REMARK   60  A    between atoms: _135  and  _136
REMARK   61  A    between atoms: _139  and  _141
REMARK   62  A    between atoms: _141  and  _142
REMARK   63  A    between atoms: _141  and  _144
REMARK   64  A    between atoms: _144  and  _145
REMARK   65  A    between atoms: _145  and  _146
REMARK   66  A    between atoms: _146  and  _147
REMARK   67  A    between atoms: _147  and  _148
REMARK   68  A    between atoms: _152  and  _154
REMARK   69  A    between atoms: _154  and  _155
REMARK   70  A    between atoms: _154  and  _157
REMARK   71  A    between atoms: _157  and  _158
REMARK   72  A    between atoms: _161  and  _163
REMARK   73  A    between atoms: _163  and  _164
REMARK   74  A    between atoms: _163  and  _166
REMARK   75  A    between atoms: _169  and  _171
REMARK   76  A    between atoms: _171  and  _172
REMARK   77  A    between atoms: _171  and  _174
REMARK   78  A    between atoms: _174  and  _175
REMARK   79  A    between atoms: _178  and  _180
REMARK   80  A    between atoms: _180  and  _181
REMARK   81  A    between atoms: _180  and  _183
REMARK   82  A    between atoms: _183  and  _184
REMARK   83  A    between atoms: _187  and  _189
REMARK   84  A    between atoms: _189  and  _190
REMARK   85  A    between atoms: _192  and  _194
REMARK   86  A    between atoms: _194  and  _195
REMARK   87  A    between atoms: _194  and  _197
REMARK   88  A    between atoms: _197  and  _198
REMARK   89  A    between atoms: _201  and  _203
REMARK   90  A    between atoms: _203  and  _204
REMARK   91  A    between atoms: _206  and  _208
REMARK   92  A    between atoms: _208  and  _209
REMARK   93  A    between atoms: _208  and  _211
REMARK   94  A    between atoms: _211  and  _212
REMARK   95  A    between atoms: _212  and  _213
REMARK   96  A    between atoms: _215  and  _217
REMARK   97  A    between atoms: _217  and  _218
REMARK   98  A    between atoms: _217  and  _220
REMARK   99  A    between atoms: _220  and  _221
REMARK  100  A    between atoms: _224  and  _226
REMARK  101  A    between atoms: _226  and  _227
REMARK  102  A    between atoms: _226  and  _229
REMARK  103  A    between atoms: _229  and  _230
REMARK  104  A    between atoms: _233  and  _235
REMARK  105  A    between atoms: _235  and  _236
REMARK  106  A    between atoms: _235  and  _238
REMARK  107  A    between atoms: _238  and  _239
REMARK  108  A    between atoms: _242  and  _244
REMARK  109  A    between atoms: _244  and  _245
REMARK  110  A    between atoms: _244  and  _247
REMARK  111  A    between atoms: _247  and  _248
REMARK  112  A    between atoms: _253  and  _255
REMARK  113  A    between atoms: _255  and  _256
REMARK  114  A    between atoms: _255  and  _258
REMARK  115  A    between atoms: _258  and  _259
REMARK  116  A    between atoms: _262  and  _264
REMARK  117  A    between atoms: _264  and  _265
REMARK  118  A    between atoms: _267  and  _269
REMARK  119  A    between atoms: _269  and  _270
REMARK  120  A    between atoms: _269  and  _272
REMARK  121  A    between atoms: _272  and  _273
REMARK  122  A    between atoms: _276  and  _278
REMARK  123  A    between atoms: _278  and  _279
REMARK  124  A    between atoms: _282  and  _284
REMARK  125  A    between atoms: _284  and  _285
REMARK  126  A    between atoms: _287  and  _289
REMARK  127  A    between atoms: _289  and  _290
REMARK  128  A    between atoms: _289  and  _292
REMARK  129  A    between atoms: _295  and  _297
REMARK  130  A    between atoms: _297  and  _298
REMARK  131  A    between atoms: _300  and  _302
REMARK  132  A    between atoms: _302  and  _303
REMARK  133  A    between atoms: _302  and  _305
REMARK  134  A    between atoms: _305  and  _306
REMARK  135  A    between atoms: _312  and  _314
REMARK  136  A    between atoms: _314  and  _315
REMARK  137  A    between atoms: _314  and  _317
REMARK  138  A    between atoms: _317  and  _318
REMARK  139  A    between atoms: _323  and  _324
REMARK  140  A    between atoms: _326  and  _328
REMARK  141  A    between atoms: _328  and  _329
REMARK  142  A    between atoms: _328  and  _331
REMARK  143  A    between atoms: _331  and  _332
REMARK  144  A    between atoms: _334  and  _336
REMARK  145  A    between atoms: _336  and  _337
REMARK  146  A    between atoms: _340  and  _342
REMARK  147  A    between atoms: _342  and  _343
REMARK  148  A    between atoms: _342  and  _345
REMARK  149  A    between atoms: _345  and  _346
REMARK  150  A    between atoms: _351  and  _352
REMARK  151  A    between atoms: _354  and  _356
REMARK  152  A    between atoms: _356  and  _357
REMARK  153  A    between atoms: _356  and  _359
REMARK  154  A    between atoms: _362  and  _364
REMARK  155  A    between atoms: _364  and  _365
REMARK  156  A    between atoms: _364  and  _367
REMARK  157  A    between atoms: _367  and  _368
REMARK  158  A    between atoms: _371  and  _373
REMARK  159  A    between atoms: _373  and  _374
REMARK  160  A    between atoms: _373  and  _376
REMARK  161  A    between atoms: _379  and  _381
REMARK  162  A    between atoms: _381  and  _382
REMARK  163  A    between atoms: _381  and  _384
REMARK  164  A    between atoms: _384  and  _385
REMARK  165  A    between atoms: _388  and  _390
REMARK  166  A    between atoms: _390  and  _391
REMARK  167  A    between atoms: _390  and  _393
REMARK  168  A    between atoms: _393  and  _394
REMARK  169  A    between atoms: _397  and  _399
REMARK  170  A    between atoms: _399  and  _400
REMARK  171  A    between atoms: _399  and  _402
REMARK  172  A    between atoms: _402  and  _403
REMARK  173  A    between atoms: _403  and  _404
REMARK  174  A    between atoms: _404  and  _405
REMARK  175  A    between atoms: _405  and  _406
REMARK  176  A    between atoms: _410  and  _412
REMARK  177  A    between atoms: _412  and  _413
REMARK  178  A    between atoms: _416  and  _418
REMARK  179  A    between atoms: _418  and  _419
REMARK  180  A    between atoms: _418  and  _421
REMARK  181  A    between atoms: _421  and  _422
REMARK  182  A    between atoms: _432  and  _434
REMARK  183  A    between atoms: _434  and  _435
REMARK  184  A    between atoms: _434  and  _437
REMARK  185  A    between atoms: _437  and  _438
REMARK  186  A    between atoms: _438  and  _439
REMARK  187  A    between atoms: _442  and  _444
REMARK  188  A    between atoms: _444  and  _445
REMARK  189  A    between atoms: _444  and  _447
REMARK  190  A    between atoms: _447  and  _448
REMARK  191  A    between atoms: _450  and  _452
REMARK  192  A    between atoms: _452  and  _453
REMARK  193  A    between atoms: _452  and  _455
REMARK  194  A    between atoms: _455  and  _456
REMARK  195  A    between atoms: _462  and  _464
REMARK  196  A    between atoms: _464  and  _465
REMARK  197  A    between atoms: _464  and  _467
REMARK  198  A    between atoms: _467  and  _468
REMARK  199  A    between atoms: _471  and  _473
REMARK  200  A    between atoms: _473  and  _474
REMARK  201  A    between atoms: _473  and  _476
REMARK  202  A    between atoms: _479  and  _481
REMARK  203  A    between atoms: _481  and  _482
REMARK  204  A    between atoms: _484  and  _486
REMARK  205  A    between atoms: _486  and  _487
REMARK  206  A    between atoms: _486  and  _489
REMARK  207  A    between atoms: _489  and  _490
REMARK  208  A    between atoms: _493  and  _495
REMARK  209  A    between atoms: _495  and  _496
REMARK  210  A    between atoms: _495  and  _498
REMARK  211  A    between atoms: _498  and  _499
REMARK  212  A    between atoms: _499  and  _500
REMARK  213  A    between atoms: _500  and  _501
REMARK  214  A    between atoms: _501  and  _502
REMARK  215  A    between atoms: _506  and  _508
REMARK  216  A    between atoms: _508  and  _509
REMARK  217  A    between atoms: _508  and  _511
REMARK  218  A    between atoms: _514  and  _516
REMARK  219  A    between atoms: _516  and  _517
REMARK  220  A    between atoms: _516  and  _519
REMARK  221  A    between atoms: _519  and  _520
REMARK                            x       y       z     vdW  Elec       q    Type
REMARK                         _______ _______ _______ _____ _____    ______ ____
ROOT
ATOM      1  CA  LYS A   3      -4.654  18.305  25.411  0.00  0.00    +0.149 C 
ENDROOT
BRANCH   1   3
ATOM      2  C   THR A   2      -4.806  16.126  26.477  0.00  0.00    +0.243 C 
ATOM      3  N   LYS A   3      -4.304  17.356  26.431  0.00  0.00    -0.297 N 
ATOM      4  H   LYS A   3      -3.628  17.644  27.166  0.00  0.00    +0.150 HD
ATOM      5  O   THR A   2      -5.672  15.709  25.701  0.00  0.00    -0.273 OA
BRANCH   2   6
ATOM      6  CA  THR A   2      -4.249  15.235  27.584  0.00  0.00    +0.176 C 
BRANCH   6   9
ATOM      7  C   GLY A   1      -5.288  14.161  29.497  0.00  0.00    +0.240 C 
ATOM      8  O   GLY A   1      -4.401  14.539  30.267  0.00  0.00    -0.274 OA
ATOM      9  N   THR A   2      -5.321  14.474  28.210  0.00  0.00    -0.295 N 
ATOM     10  H   THR A   2      -6.131  14.169  27.634  0.00  0.00    +0.150 HD
BRANCH   7  11
ATOM     11  CA  GLY A   1      -6.415  13.279  29.968  0.00  0.00    +0.169 C 
BRANCH  11  12
ATOM     12  N   GLY A   1      -6.677  13.418  31.406  0.00  0.00    -0.236 NA
ATOM     13  H   GLY A   1      -5.884  13.435  32.078  0.00  0.00    +0.142 HD
ENDBRANCH  11  12
ENDBRANCH   7  11
ENDBRANCH   6   9
BRANCH   6  14
ATOM     14  CB  THR A   2      -3.175  14.278  27.026  0.00  0.00    +0.137 C 
ATOM     15  CG2 THR A   2      -2.056  15.079  26.294  0.00  0.00    +0.034 C 
BRANCH  14  16
ATOM     16  OG1 THR A   2      -2.618  13.525  28.111  0.00  0.00    -0.382 OA
ATOM     17  HG1 THR A   2      -2.208  14.145  28.765  0.00  0.00    +0.210 HD
ENDBRANCH  14  16
ENDBRANCH   6  14
ENDBRANCH   2   6
ENDBRANCH   1   3
BRANCH   1  18
ATOM     18  C   LYS A   3      -3.344  18.722  24.724  0.00  0.00    +0.241 C 
ATOM     19  O   LYS A   3      -2.421  19.238  25.375  0.00  0.00    -0.273 OA
ATOM     20  N   VAL A   4      -3.247  18.463  23.429  0.00  0.00    -0.298 N 
ATOM     21  H   VAL A   4      -4.019  17.952  22.955  0.00  0.00    +0.150 HD
BRANCH  20  22
ATOM     22  CA  VAL A   4      -2.084  18.877  22.650  0.00  0.00    +0.137 C 
BRANCH  22  23
ATOM     23  CB  VAL A   4      -1.560  17.756  21.747  0.00  0.00    +0.026 C 
ATOM     24  CG2 VAL A   4      -1.184  16.527  22.598  0.00  0.00    +0.002 C 
ATOM     25  CG1 VAL A   4      -0.339  18.242  20.943  0.00  0.00    +0.002 C 
ENDBRANCH  22  23
BRANCH  22  26
ATOM     26  C   VAL A   4      -2.455  20.113  21.822  0.00  0.00    +0.227 C 
ATOM     27  O   VAL A   4      -3.307  20.044  20.926  0.00  0.00    -0.286 OA
ENDBRANCH  22  26
ENDBRANCH  20  22
ENDBRANCH   1  18
BRANCH   1  28
ATOM     28  CB  LYS A   3      -5.322  19.485  26.138  0.00  0.00    +0.029 C 
BRANCH  28  29
ATOM     29  CG  LYS A   3      -5.603  20.755  25.378  0.00  0.00    +0.000 C 
BRANCH  29  30
ATOM     30  CD  LYS A   3      -6.664  21.513  26.197  0.00  0.00    -0.024 C 
BRANCH  30  31
ATOM     31  CE  LYS A   3      -6.593  23.021  26.053  0.00  0.00    -0.086 C 
BRANCH  31  32
ATOM     32  NZ  LYS A   3      -7.799  23.653  26.684  0.00  0.00    +0.380 N 
ATOM     33  HZ1 LYS A   3      -7.830  23.406  27.694  0.00  0.00    -0.089 HD
ATOM     34  HZ2 LYS A   3      -7.742  24.686  26.580  0.00  0.00    -0.089 HD
ATOM     35  HZ3 LYS A   3      -8.658  23.303  26.214  0.00  0.00    -0.089 HD
ENDBRANCH  31  32
ENDBRANCH  30  31
ENDBRANCH  29  30
ENDBRANCH  28  29
ENDBRANCH   1  28
TORSDOF 16
REMARK  Name = ../refined-set-2016/4bqg/4bqg_pocket.pdb
REMARK  221 active torsions:
REMARK  status: ('A' for Active; 'I' for Inactive)
REMARK    1  A    between atoms: _1  and  _3
REMARK    2  A    between atoms: _3  and  _4
REMARK    3  A    between atoms: _3  and  _6
REMARK    4  A    between atoms: _6  and  _7
REMARK    5  A    between atoms: _13  and  _15
REMARK    6  A    between atoms: _15  and  _16
REMARK    7  A    between atoms: _15  and  _18
REMARK    8  A    between atoms: _18  and  _19
REMARK    9  A    between atoms: _22  and  _24
REMARK   10  A    between atoms: _24  and  _25
REMARK   11  A    between atoms: _24  and  _27
REMARK   12  A    between atoms: _27  and  _28
REMARK   13  A    between atoms: _28  and  _29
REMARK   14  A    between atoms: _31  and  _33
REMARK   15  A    between atoms: _33  and  _34
REMARK   16  A    between atoms: _33  and  _36
REMARK   17  A    between atoms: _36  and  _37
REMARK   18  A    between atoms: _43  and  _45
REMARK   19  A    between atoms: _45  and  _46
REMARK   20  A    between atoms: _45  and  _48
REMARK   21  A    between atoms: _48  and  _49
REMARK   22  A    between atoms: _52  and  _54
REMARK   23  A    between atoms: _54  and  _55
REMARK   24  A    between atoms: _54  and  _57
REMARK   25  A    between atoms: _57  and  _58
REMARK   26  A    between atoms: _58  and  _59
REMARK   27  A    between atoms: _62  and  _64
REMARK   28  A    between atoms: _64  and  _65
REMARK   29  A    between atoms: _64  and  _67
REMARK   30  A    between atoms: _67  and  _68
REMARK   31  A    between atoms: _71  and  _73
REMARK   32  A    between atoms: _73  and  _74
REMARK   33  A    between atoms: _73  and  _76
REMARK   34  A    between atoms: _76  and  _77
REMARK   35  A    between atoms: _80  and  _82
REMARK   36  A    between atoms: _82  and  _83
REMARK   37  A    between atoms: _82  and  _85
REMARK   38  A    between atoms: _85  and  _86
REMARK   39  A    between atoms: _88  and  _90
REMARK   40  A    between atoms: _90  and  _91
REMARK   41  A    between atoms: _90  and  _93
REMARK   42  A    between atoms: _93  and  _94
REMARK   43  A    between atoms: _99  and  _101
REMARK   44  A    between atoms: _101  and  _102
REMARK   45  A    between atoms: _101  and  _104
REMARK   46  A    between atoms: _104  and  _105
REMARK   47  A    between atoms: _107  and  _109
REMARK   48  A    between atoms: _109  and  _110
REMARK   49  A    between atoms: _109  and  _112
REMARK   50  A    between atoms: _112  and  _113
REMARK   51  A    between atoms: _115  and  _117
REMARK   52  A    between atoms: _117  and  _118
REMARK   53  A    between atoms: _117  and  _120
REMARK   54  A    between atoms: _120  and  _121
REMARK   55  A    between atoms: _124  and  _126
REMARK   56  A    between atoms: _126  and  _127
REMARK   57  A    between atoms: _130  and  _132
REMARK   58  A    between atoms: _132  and  _133
REMARK   59  A    between atoms: _132  and  _135
REMARK   60  A    between atoms: _135  and  _136
REMARK   61  A    between atoms: _139  and  _141
REMARK   62  A    between atoms: _141  and  _142
REMARK   63  A    between atoms: _141  and  _144
REMARK   64  A    between atoms: _144  and  _145
REMARK   65  A    between atoms: _145  and  _146
REMARK   66  A    between atoms: _146  and  _147
REMARK   67  A    between atoms: _147  and  _148
REMARK   68  A    between atoms: _152  and  _154
REMARK   69  A    between atoms: _154  and  _155
REMARK   70  A    between atoms: _154  and  _157
REMARK   71  A    between atoms: _157  and  _158
REMARK   72  A    between atoms: _161  and  _163
REMARK   73  A    between atoms: _163  and  _164
REMARK   74  A    between atoms: _163  and  _166
REMARK   75  A    between atoms: _169  and  _171
REMARK   76  A    between atoms: _171  and  _172
REMARK   77  A    between atoms: _171  and  _174
REMARK   78  A    between atoms: _174  and  _175
REMARK   79  A    between atoms: _178  and  _180
REMARK   80  A    between atoms: _180  and  _181
REMARK   81  A    between atoms: _180  and  _183
REMARK   82  A    between atoms: _183  and  _184
REMARK   83  A    between atoms: _187  and  _189
REMARK   84  A    between atoms: _189  and  _190
REMARK   85  A    between atoms: _192  and  _194
REMARK   86  A    between atoms: _194  and  _195
REMARK   87  A    between atoms: _194  and  _197
REMARK   88  A    between atoms: _197  and  _198
REMARK   89  A    between atoms: _201  and  _203
REMARK   90  A    between atoms: _203  and  _204
REMARK   91  A    between atoms: _206  and  _208
REMARK   92  A    between atoms: _208  and  _209
REMARK   93  A    between atoms: _208  and  _211
REMARK   94  A    between atoms: _211  and  _212
REMARK   95  A    between atoms: _212  and  _213
REMARK   96  A    between atoms: _215  and  _217
REMARK   97  A    between atoms: _217  and  _218
REMARK   98  A    between atoms: _217  and  _220
REMARK   99  A    between atoms: _220  and  _221
REMARK  100  A    between atoms: _224  and  _226
REMARK  101  A    between atoms: _226  and  _227
REMARK  102  A    between atoms: _226  and  _229
REMARK  103  A    between atoms: _229  and  _230
REMARK  104  A    between atoms: _233  and  _235
REMARK  105  A    between atoms: _235  and  _236
REMARK  106  A    between atoms: _235  and  _238
REMARK  107  A    between atoms: _238  and  _239
REMARK  108  A    between atoms: _242  and  _244
REMARK  109  A    between atoms: _244  and  _245
REMARK  110  A    between atoms: _244  and  _247
REMARK  111  A    between atoms: _247  and  _248
REMARK  112  A    between atoms: _253  and  _255
REMARK  113  A    between atoms: _255  and  _256
REMARK  114  A    between atoms: _255  and  _258
REMARK  115  A    between atoms: _258  and  _259
REMARK  116  A    between atoms: _262  and  _264
REMARK  117  A    between atoms: _264  and  _265
REMARK  118  A    between atoms: _267  and  _269
REMARK  119  A    between atoms: _269  and  _270
REMARK  120  A    between atoms: _269  and  _272
REMARK  121  A    between atoms: _272  and  _273
REMARK  122  A    between atoms: _276  and  _278
REMARK  123  A    between atoms: _278  and  _279
REMARK  124  A    between atoms: _282  and  _284
REMARK  125  A    between atoms: _284  and  _285
REMARK  126  A    between atoms: _287  and  _289
REMARK  127  A    between atoms: _289  and  _290
REMARK  128  A    between atoms: _289  and  _292
REMARK  129  A    between atoms: _295  and  _297
REMARK  130  A    between atoms: _297  and  _298
REMARK  131  A    between atoms: _300  and  _302
REMARK  132  A    between atoms: _302  and  _303
REMARK  133  A    between atoms: _302  and  _305
REMARK  134  A    between atoms: _305  and  _306
REMARK  135  A    between atoms: _312  and  _314
REMARK  136  A    between atoms: _314  and  _315
REMARK  137  A    between atoms: _314  and  _317
REMARK  138  A    between atoms: _317  and  _318
REMARK  139  A    between atoms: _323  and  _324
REMARK  140  A    between atoms: _326  and  _328
REMARK  141  A    between atoms: _328  and  _329
REMARK  142  A    between atoms: _328  and  _331
REMARK  143  A    between atoms: _331  and  _332
REMARK  144  A    between atoms: _334  and  _336
REMARK  145  A    between atoms: _336  and  _337
REMARK  146  A    between atoms: _340  and  _342
REMARK  147  A    between atoms: _342  and  _343
REMARK  148  A    between atoms: _342  and  _345
REMARK  149  A    between atoms: _345  and  _346
REMARK  150  A    between atoms: _351  and  _352
REMARK  151  A    between atoms: _354  and  _356
REMARK  152  A    between atoms: _356  and  _357
REMARK  153  A    between atoms: _356  and  _359
REMARK  154  A    between atoms: _362  and  _364
REMARK  155  A    between atoms: _364  and  _365
REMARK  156  A    between atoms: _364  and  _367
REMARK  157  A    between atoms: _367  and  _368
REMARK  158  A    between atoms: _371  and  _373
REMARK  159  A    between atoms: _373  and  _374
REMARK  160  A    between atoms: _373  and  _376
REMARK  161  A    between atoms: _379  and  _381
REMARK  162  A    between atoms: _381  and  _382
REMARK  163  A    between atoms: _381  and  _384
REMARK  164  A    between atoms: _384  and  _385
REMARK  165  A    between atoms: _388  and  _390
REMARK  166  A    between atoms: _390  and  _391
REMARK  167  A    between atoms: _390  and  _393
REMARK  168  A    between atoms: _393  and  _394
REMARK  169  A    between atoms: _397  and  _399
REMARK  170  A    between atoms: _399  and  _400
REMARK  171  A    between atoms: _399  and  _402
REMARK  172  A    between atoms: _402  and  _403
REMARK  173  A    between atoms: _403  and  _404
REMARK  174  A    between atoms: _404  and  _405
REMARK  175  A    between atoms: _405  and  _406
REMARK  176  A    between atoms: _410  and  _412
REMARK  177  A    between atoms: _412  and  _413
REMARK  178  A    between atoms: _416  and  _418
REMARK  179  A    between atoms: _418  and  _419
REMARK  180  A    between atoms: _418  and  _421
REMARK  181  A    between atoms: _421  and  _422
REMARK  182  A    between atoms: _432  and  _434
REMARK  183  A    between atoms: _434  and  _435
REMARK  184  A    between atoms: _434  and  _437
REMARK  185  A    between atoms: _437  and  _438
REMARK  186  A    between atoms: _438  and  _439
REMARK  187  A    between atoms: _442  and  _444
REMARK  188  A    between atoms: _444  and  _445
REMARK  189  A    between atoms: _444  and  _447
REMARK  190  A    between atoms: _447  and  _448
REMARK  191  A    between atoms: _450  and  _452
REMARK  192  A    between atoms: _452  and  _453
REMARK  193  A    between atoms: _452  and  _455
REMARK  194  A    between atoms: _455  and  _456
REMARK  195  A    between atoms: _462  and  _464
REMARK  196  A    between atoms: _464  and  _465
REMARK  197  A    between atoms: _464  and  _467
REMARK  198  A    between atoms: _467  and  _468
REMARK  199  A    between atoms: _471  and  _473
REMARK  200  A    between atoms: _473  and  _474
REMARK  201  A    between atoms: _473  and  _476
REMARK  202  A    between atoms: _479  and  _481
REMARK  203  A    between atoms: _481  and  _482
REMARK  204  A    between atoms: _484  and  _486
REMARK  205  A    between atoms: _486  and  _487
REMARK  206  A    between atoms: _486  and  _489
REMARK  207  A    between atoms: _489  and  _490
REMARK  208  A    between atoms: _493  and  _495
REMARK  209  A    between atoms: _495  and  _496
REMARK  210  A    between atoms: _495  and  _498
REMARK  211  A    between atoms: _498  and  _499
REMARK  212  A    between atoms: _499  and  _500
REMARK  213  A    between atoms: _500  and  _501
REMARK  214  A    between atoms: _501  and  _502
REMARK  215  A    between atoms: _506  and  _508
REMARK  216  A    between atoms: _508  and  _509
REMARK  217  A    between atoms: _508  and  _511
REMARK  218  A    between atoms: _514  and  _516
REMARK  219  A    between atoms: _516  and  _517
REMARK  220  A    between atoms: _516  and  _519
REMARK  221  A    between atoms: _519  and  _520
REMARK                            x       y       z     vdW  Elec       q    Type
REMARK                         _______ _______ _______ _____ _____    ______ ____
ROOT
ATOM      1  CA  LEU A   1      -0.363  22.826  17.978  0.00  0.00    +0.133 C 
ENDROOT
BRANCH   1   2
ATOM      2  N   LEU A   1      -1.326  22.629  19.035  0.00  0.00    -0.239 NA
ATOM      3  H   LEU A   1      -2.318  22.435  18.790  0.00  0.00    +0.142 HD
ENDBRANCH   1   2
BRANCH   1   4
ATOM      4  C   LEU A   1      -0.464  24.284  17.526  0.00  0.00    +0.224 C 
ATOM      5  O   LEU A   1      -1.495  24.680  16.973  0.00  0.00    -0.287 OA
ENDBRANCH   1   4
BRANCH   1   6
ATOM      6  CB  LEU A   1      -0.673  21.902  16.776  0.00  0.00    +0.025 C 
BRANCH   6   7
ATOM      7  CG  LEU A   1      -0.743  20.409  17.130  0.00  0.00    +0.002 C 
ATOM      8  CD2 LEU A   1       0.621  19.894  17.517  0.00  0.00    +0.000 C 
ATOM      9  CD1 LEU A   1      -1.272  19.653  15.907  0.00  0.00    +0.000 C 
ENDBRANCH   6   7
ENDBRANCH   1   6
TORSDOF 4
REMARK  Name = ../refined-set-2016/4bqg/4bqg_pocket.pdb
REMARK  221 active torsions:
REMARK  status: ('A' for Active; 'I' for Inactive)
REMARK    1  A    between atoms: _1  and  _3
REMARK    2  A    between atoms: _3  and  _4
REMARK    3  A    between atoms: _3  and  _6
REMARK    4  A    between atoms: _6  and  _7
REMARK    5  A    between atoms: _13  and  _15
REMARK    6  A    between atoms: _15  and  _16
REMARK    7  A    between atoms: _15  and  _18
REMARK    8  A    between atoms: _18  and  _19
REMARK    9  A    between atoms: _22  and  _24
REMARK   10  A    between atoms: _24  and  _25
REMARK   11  A    between atoms: _24  and  _27
REMARK   12  A    between atoms: _27  and  _28
REMARK   13  A    between atoms: _28  and  _29
REMARK   14  A    between atoms: _31  and  _33
REMARK   15  A    between atoms: _33  and  _34
REMARK   16  A    between atoms: _33  and  _36
REMARK   17  A    between atoms: _36  and  _37
REMARK   18  A    between atoms: _43  and  _45
REMARK   19  A    between atoms: _45  and  _46
REMARK   20  A    between atoms: _45  and  _48
REMARK   21  A    between atoms: _48  and  _49
REMARK   22  A    between atoms: _52  and  _54
REMARK   23  A    between atoms: _54  and  _55
REMARK   24  A    between atoms: _54  and  _57
REMARK   25  A    between atoms: _57  and  _58
REMARK   26  A    between atoms: _58  and  _59
REMARK   27  A    between atoms: _62  and  _64
REMARK   28  A    between atoms: _64  and  _65
REMARK   29  A    between atoms: _64  and  _67
REMARK   30  A    between atoms: _67  and  _68
REMARK   31  A    between atoms: _71  and  _73
REMARK   32  A    between atoms: _73  and  _74
REMARK   33  A    between atoms: _73  and  _76
REMARK   34  A    between atoms: _76  and  _77
REMARK   35  A    between atoms: _80  and  _82
REMARK   36  A    between atoms: _82  and  _83
REMARK   37  A    between atoms: _82  and  _85
REMARK   38  A    between atoms: _85  and  _86
REMARK   39  A    between atoms: _88  and  _90
REMARK   40  A    between atoms: _90  and  _91
REMARK   41  A    between atoms: _90  and  _93
REMARK   42  A    between atoms: _93  and  _94
REMARK   43  A    between atoms: _99  and  _101
REMARK   44  A    between atoms: _101  and  _102
REMARK   45  A    between atoms: _101  and  _104
REMARK   46  A    between atoms: _104  and  _105
REMARK   47  A    between atoms: _107  and  _109
REMARK   48  A    between atoms: _109  and  _110
REMARK   49  A    between atoms: _109  and  _112
REMARK   50  A    between atoms: _112  and  _113
REMARK   51  A    between atoms: _115  and  _117
REMARK   52  A    between atoms: _117  and  _118
REMARK   53  A    between atoms: _117  and  _120
REMARK   54  A    between atoms: _120  and  _121
REMARK   55  A    between atoms: _124  and  _126
REMARK   56  A    between atoms: _126  and  _127
REMARK   57  A    between atoms: _130  and  _132
REMARK   58  A    between atoms: _132  and  _133
REMARK   59  A    between atoms: _132  and  _135
REMARK   60  A    between atoms: _135  and  _136
REMARK   61  A    between atoms: _139  and  _141
REMARK   62  A    between atoms: _141  and  _142
REMARK   63  A    between atoms: _141  and  _144
REMARK   64  A    between atoms: _144  and  _145
REMARK   65  A    between atoms: _145  and  _146
REMARK   66  A    between atoms: _146  and  _147
REMARK   67  A    between atoms: _147  and  _148
REMARK   68  A    between atoms: _152  and  _154
REMARK   69  A    between atoms: _154  and  _155
REMARK   70  A    between atoms: _154  and  _157
REMARK   71  A    between atoms: _157  and  _158
REMARK   72  A    between atoms: _161  and  _163
REMARK   73  A    between atoms: _163  and  _164
REMARK   74  A    between atoms: _163  and  _166
REMARK   75  A    between atoms: _169  and  _171
REMARK   76  A    between atoms: _171  and  _172
REMARK   77  A    between atoms: _171  and  _174
REMARK   78  A    between atoms: _174  and  _175
REMARK   79  A    between atoms: _178  and  _180
REMARK   80  A    between atoms: _180  and  _181
REMARK   81  A    between atoms: _180  and  _183
REMARK   82  A    between atoms: _183  and  _184
REMARK   83  A    between atoms: _187  and  _189
REMARK   84  A    between atoms: _189  and  _190
REMARK   85  A    between atoms: _192  and  _194
REMARK   86  A    between atoms: _194  and  _195
REMARK   87  A    between atoms: _194  and  _197
REMARK   88  A    between atoms: _197  and  _198
REMARK   89  A    between atoms: _201  and  _203
REMARK   90  A    between atoms: _203  and  _204
REMARK   91  A    between atoms: _206  and  _208
REMARK   92  A    between atoms: _208  and  _209
REMARK   93  A    between atoms: _208  and  _211
REMARK   94  A    between atoms: _211  and  _212
REMARK   95  A    between atoms: _212  and  _213
REMARK   96  A    between atoms: _215  and  _217
REMARK   97  A    between atoms: _217  and  _218
REMARK   98  A    between atoms: _217  and  _220
REMARK   99  A    between atoms: _220  and  _221
REMARK  100  A    between atoms: _224  and  _226
REMARK  101  A    between atoms: _226  and  _227
REMARK  102  A    between atoms: _226  and  _229
REMARK  103  A    between atoms: _229  and  _230
REMARK  104  A    between atoms: _233  and  _235
REMARK  105  A    between atoms: _235  and  _236
REMARK  106  A    between atoms: _235  and  _238
REMARK  107  A    between atoms: _238  and  _239
REMARK  108  A    between atoms: _242  and  _244
REMARK  109  A    between atoms: _244  and  _245
REMARK  110  A    between atoms: _244  and  _247
REMARK  111  A    between atoms: _247  and  _248
REMARK  112  A    between atoms: _253  and  _255
REMARK  113  A    between atoms: _255  and  _256
REMARK  114  A    between atoms: _255  and  _258
REMARK  115  A    between atoms: _258  and  _259
REMARK  116  A    between atoms: _262  and  _264
REMARK  117  A    between atoms: _264  and  _265
REMARK  118  A    between atoms: _267  and  _269
REMARK  119  A    between atoms: _269  and  _270
REMARK  120  A    between atoms: _269  and  _272
REMARK  121  A    between atoms: _272  and  _273
REMARK  122  A    between atoms: _276  and  _278
REMARK  123  A    between atoms: _278  and  _279
REMARK  124  A    between atoms: _282  and  _284
REMARK  125  A    between atoms: _284  and  _285
REMARK  126  A    between atoms: _287  and  _289
REMARK  127  A    between atoms: _289  and  _290
REMARK  128  A    between atoms: _289  and  _292
REMARK  129  A    between atoms: _295  and  _297
REMARK  130  A    between atoms: _297  and  _298
REMARK  131  A    between atoms: _300  and  _302
REMARK  132  A    between atoms: _302  and  _303
REMARK  133  A    between atoms: _302  and  _305
REMARK  134  A    between atoms: _305  and  _306
REMARK  135  A    between atoms: _312  and  _314
REMARK  136  A    between atoms: _314  and  _315
REMARK  137  A    between atoms: _314  and  _317
REMARK  138  A    between atoms: _317  and  _318
REMARK  139  A    between atoms: _323  and  _324
REMARK  140  A    between atoms: _326  and  _328
REMARK  141  A    between atoms: _328  and  _329
REMARK  142  A    between atoms: _328  and  _331
REMARK  143  A    between atoms: _331  and  _332
REMARK  144  A    between atoms: _334  and  _336
REMARK  145  A    between atoms: _336  and  _337
REMARK  146  A    between atoms: _340  and  _342
REMARK  147  A    between atoms: _342  and  _343
REMARK  148  A    between atoms: _342  and  _345
REMARK  149  A    between atoms: _345  and  _346
REMARK  150  A    between atoms: _351  and  _352
REMARK  151  A    between atoms: _354  and  _356
REMARK  152  A    between atoms: _356  and  _357
REMARK  153  A    between atoms: _356  and  _359
REMARK  154  A    between atoms: _362  and  _364
REMARK  155  A    between atoms: _364  and  _365
REMARK  156  A    between atoms: _364  and  _367
REMARK  157  A    between atoms: _367  and  _368
REMARK  158  A    between atoms: _371  and  _373
REMARK  159  A    between atoms: _373  and  _374
REMARK  160  A    between atoms: _373  and  _376
REMARK  161  A    between atoms: _379  and  _381
REMARK  162  A    between atoms: _381  and  _382
REMARK  163  A    between atoms: _381  and  _384
REMARK  164  A    between atoms: _384  and  _385
REMARK  165  A    between atoms: _388  and  _390
REMARK  166  A    between atoms: _390  and  _391
REMARK  167  A    between atoms: _390  and  _393
REMARK  168  A    between atoms: _393  and  _394
REMARK  169  A    between atoms: _397  and  _399
REMARK  170  A    between atoms: _399  and  _400
REMARK  171  A    between atoms: _399  and  _402
REMARK  172  A    between atoms: _402  and  _403
REMARK  173  A    between atoms: _403  and  _404
REMARK  174  A    between atoms: _404  and  _405
REMARK  175  A    between atoms: _405  and  _406
REMARK  176  A    between atoms: _410  and  _412
REMARK  177  A    between atoms: _412  and  _413
REMARK  178  A    between atoms: _416  and  _418
REMARK  179  A    between atoms: _418  and  _419
REMARK  180  A    between atoms: _418  and  _421
REMARK  181  A    between atoms: _421  and  _422
REMARK  182  A    between atoms: _432  and  _434
REMARK  183  A    between atoms: _434  and  _435
REMARK  184  A    between atoms: _434  and  _437
REMARK  185  A    between atoms: _437  and  _438
REMARK  186  A    between atoms: _438  and  _439
REMARK  187  A    between atoms: _442  and  _444
REMARK  188  A    between atoms: _444  and  _445
REMARK  189  A    between atoms: _444  and  _447
REMARK  190  A    between atoms: _447  and  _448
REMARK  191  A    between atoms: _450  and  _452
REMARK  192  A    between atoms: _452  and  _453
REMARK  193  A    between atoms: _452  and  _455
REMARK  194  A    between atoms: _455  and  _456
REMARK  195  A    between atoms: _462  and  _464
REMARK  196  A    between atoms: _464  and  _465
REMARK  197  A    between atoms: _464  and  _467
REMARK  198  A    between atoms: _467  and  _468
REMARK  199  A    between atoms: _471  and  _473
REMARK  200  A    between atoms: _473  and  _474
REMARK  201  A    between atoms: _473  and  _476
REMARK  202  A    between atoms: _479  and  _481
REMARK  203  A    between atoms: _481  and  _482
REMARK  204  A    between atoms: _484  and  _486
REMARK  205  A    between atoms: _486  and  _487
REMARK  206  A    between atoms: _486  and  _489
REMARK  207  A    between atoms: _489  and  _490
REMARK  208  A    between atoms: _493  and  _495
REMARK  209  A    between atoms: _495  and  _496
REMARK  210  A    between atoms: _495  and  _498
REMARK  211  A    between atoms: _498  and  _499
REMARK  212  A    between atoms: _499  and  _500
REMARK  213  A    between atoms: _500  and  _501
REMARK  214  A    between atoms: _501  and  _502
REMARK  215  A    between atoms: _506  and  _508
REMARK  216  A    between atoms: _508  and  _509
REMARK  217  A    between atoms: _508  and  _511
REMARK  218  A    between atoms: _514  and  _516
REMARK  219  A    between atoms: _516  and  _517
REMARK  220  A    between atoms: _516  and  _519
REMARK  221  A    between atoms: _519  and  _520
REMARK                            x       y       z     vdW  Elec       q    Type
REMARK                         _______ _______ _______ _____ _____    ______ ____
ROOT
ATOM      1  O   HOH     1      13.977  13.951  26.185  0.00  0.00    +0.000 OA
ENDROOT
TORSDOF 0
REMARK  Name = ../refined-set-2016/4bqg/4bqg_pocket.pdb
REMARK  221 active torsions:
REMARK  status: ('A' for Active; 'I' for Inactive)
REMARK    1  A    between atoms: _1  and  _3
REMARK    2  A    between atoms: _3  and  _4
REMARK    3  A    between atoms: _3  and  _6
REMARK    4  A    between atoms: _6  and  _7
REMARK    5  A    between atoms: _13  and  _15
REMARK    6  A    between atoms: _15  and  _16
REMARK    7  A    between atoms: _15  and  _18
REMARK    8  A    between atoms: _18  and  _19
REMARK    9  A    between atoms: _22  and  _24
REMARK   10  A    between atoms: _24  and  _25
REMARK   11  A    between atoms: _24  and  _27
REMARK   12  A    between atoms: _27  and  _28
REMARK   13  A    between atoms: _28  and  _29
REMARK   14  A    between atoms: _31  and  _33
REMARK   15  A    between atoms: _33  and  _34
REMARK   16  A    between atoms: _33  and  _36
REMARK   17  A    between atoms: _36  and  _37
REMARK   18  A    between atoms: _43  and  _45
REMARK   19  A    between atoms: _45  and  _46
REMARK   20  A    between atoms: _45  and  _48
REMARK   21  A    between atoms: _48  and  _49
REMARK   22  A    between atoms: _52  and  _54
REMARK   23  A    between atoms: _54  and  _55
REMARK   24  A    between atoms: _54  and  _57
REMARK   25  A    between atoms: _57  and  _58
REMARK   26  A    between atoms: _58  and  _59
REMARK   27  A    between atoms: _62  and  _64
REMARK   28  A    between atoms: _64  and  _65
REMARK   29  A    between atoms: _64  and  _67
REMARK   30  A    between atoms: _67  and  _68
REMARK   31  A    between atoms: _71  and  _73
REMARK   32  A    between atoms: _73  and  _74
REMARK   33  A    between atoms: _73  and  _76
REMARK   34  A    between atoms: _76  and  _77
REMARK   35  A    between atoms: _80  and  _82
REMARK   36  A    between atoms: _82  and  _83
REMARK   37  A    between atoms: _82  and  _85
REMARK   38  A    between atoms: _85  and  _86
REMARK   39  A    between atoms: _88  and  _90
REMARK   40  A    between atoms: _90  and  _91
REMARK   41  A    between atoms: _90  and  _93
REMARK   42  A    between atoms: _93  and  _94
REMARK   43  A    between atoms: _99  and  _101
REMARK   44  A    between atoms: _101  and  _102
REMARK   45  A    between atoms: _101  and  _104
REMARK   46  A    between atoms: _104  and  _105
REMARK   47  A    between atoms: _107  and  _109
REMARK   48  A    between atoms: _109  and  _110
REMARK   49  A    between atoms: _109  and  _112
REMARK   50  A    between atoms: _112  and  _113
REMARK   51  A    between atoms: _115  and  _117
REMARK   52  A    between atoms: _117  and  _118
REMARK   53  A    between atoms: _117  and  _120
REMARK   54  A    between atoms: _120  and  _121
REMARK   55  A    between atoms: _124  and  _126
REMARK   56  A    between atoms: _126  and  _127
REMARK   57  A    between atoms: _130  and  _132
REMARK   58  A    between atoms: _132  and  _133
REMARK   59  A    between atoms: _132  and  _135
REMARK   60  A    between atoms: _135  and  _136
REMARK   61  A    between atoms: _139  and  _141
REMARK   62  A    between atoms: _141  and  _142
REMARK   63  A    between atoms: _141  and  _144
REMARK   64  A    between atoms: _144  and  _145
REMARK   65  A    between atoms: _145  and  _146
REMARK   66  A    between atoms: _146  and  _147
REMARK   67  A    between atoms: _147  and  _148
REMARK   68  A    between atoms: _152  and  _154
REMARK   69  A    between atoms: _154  and  _155
REMARK   70  A    between atoms: _154  and  _157
REMARK   71  A    between atoms: _157  and  _158
REMARK   72  A    between atoms: _161  and  _163
REMARK   73  A    between atoms: _163  and  _164
REMARK   74  A    between atoms: _163  and  _166
REMARK   75  A    between atoms: _169  and  _171
REMARK   76  A    between atoms: _171  and  _172
REMARK   77  A    between atoms: _171  and  _174
REMARK   78  A    between atoms: _174  and  _175
REMARK   79  A    between atoms: _178  and  _180
REMARK   80  A    between atoms: _180  and  _181
REMARK   81  A    between atoms: _180  and  _183
REMARK   82  A    between atoms: _183  and  _184
REMARK   83  A    between atoms: _187  and  _189
REMARK   84  A    between atoms: _189  and  _190
REMARK   85  A    between atoms: _192  and  _194
REMARK   86  A    between atoms: _194  and  _195
REMARK   87  A    between atoms: _194  and  _197
REMARK   88  A    between atoms: _197  and  _198
REMARK   89  A    between atoms: _201  and  _203
REMARK   90  A    between atoms: _203  and  _204
REMARK   91  A    between atoms: _206  and  _208
REMARK   92  A    between atoms: _208  and  _209
REMARK   93  A    between atoms: _208  and  _211
REMARK   94  A    between atoms: _211  and  _212
REMARK   95  A    between atoms: _212  and  _213
REMARK   96  A    between atoms: _215  and  _217
REMARK   97  A    between atoms: _217  and  _218
REMARK   98  A    between atoms: _217  and  _220
REMARK   99  A    between atoms: _220  and  _221
REMARK  100  A    between atoms: _224  and  _226
REMARK  101  A    between atoms: _226  and  _227
REMARK  102  A    between atoms: _226  and  _229
REMARK  103  A    between atoms: _229  and  _230
REMARK  104  A    between atoms: _233  and  _235
REMARK  105  A    between atoms: _235  and  _236
REMARK  106  A    between atoms: _235  and  _238
REMARK  107  A    between atoms: _238  and  _239
REMARK  108  A    between atoms: _242  and  _244
REMARK  109  A    between atoms: _244  and  _245
REMARK  110  A    between atoms: _244  and  _247
REMARK  111  A    between atoms: _247  and  _248
REMARK  112  A    between atoms: _253  and  _255
REMARK  113  A    between atoms: _255  and  _256
REMARK  114  A    between atoms: _255  and  _258
REMARK  115  A    between atoms: _258  and  _259
REMARK  116  A    between atoms: _262  and  _264
REMARK  117  A    between atoms: _264  and  _265
REMARK  118  A    between atoms: _267  and  _269
REMARK  119  A    between atoms: _269  and  _270
REMARK  120  A    between atoms: _269  and  _272
REMARK  121  A    between atoms: _272  and  _273
REMARK  122  A    between atoms: _276  and  _278
REMARK  123  A    between atoms: _278  and  _279
REMARK  124  A    between atoms: _282  and  _284
REMARK  125  A    between atoms: _284  and  _285
REMARK  126  A    between atoms: _287  and  _289
REMARK  127  A    between atoms: _289  and  _290
REMARK  128  A    between atoms: _289  and  _292
REMARK  129  A    between atoms: _295  and  _297
REMARK  130  A    between atoms: _297  and  _298
REMARK  131  A    between atoms: _300  and  _302
REMARK  132  A    between atoms: _302  and  _303
REMARK  133  A    between atoms: _302  and  _305
REMARK  134  A    between atoms: _305  and  _306
REMARK  135  A    between atoms: _312  and  _314
REMARK  136  A    between atoms: _314  and  _315
REMARK  137  A    between atoms: _314  and  _317
REMARK  138  A    between atoms: _317  and  _318
REMARK  139  A    between atoms: _323  and  _324
REMARK  140  A    between atoms: _326  and  _328
REMARK  141  A    between atoms: _328  and  _329
REMARK  142  A    between atoms: _328  and  _331
REMARK  143  A    between atoms: _331  and  _332
REMARK  144  A    between atoms: _334  and  _336
REMARK  145  A    between atoms: _336  and  _337
REMARK  146  A    between atoms: _340  and  _342
REMARK  147  A    between atoms: _342  and  _343
REMARK  148  A    between atoms: _342  and  _345
REMARK  149  A    between atoms: _345  and  _346
REMARK  150  A    between atoms: _351  and  _352
REMARK  151  A    between atoms: _354  and  _356
REMARK  152  A    between atoms: _356  and  _357
REMARK  153  A    between atoms: _356  and  _359
REMARK  154  A    between atoms: _362  and  _364
REMARK  155  A    between atoms: _364  and  _365
REMARK  156  A    between atoms: _364  and  _367
REMARK  157  A    between atoms: _367  and  _368
REMARK  158  A    between atoms: _371  and  _373
REMARK  159  A    between atoms: _373  and  _374
REMARK  160  A    between atoms: _373  and  _376
REMARK  161  A    between atoms: _379  and  _381
REMARK  162  A    between atoms: _381  and  _382
REMARK  163  A    between atoms: _381  and  _384
REMARK  164  A    between atoms: _384  and  _385
REMARK  165  A    between atoms: _388  and  _390
REMARK  166  A    between atoms: _390  and  _391
REMARK  167  A    between atoms: _390  and  _393
REMARK  168  A    between atoms: _393  and  _394
REMARK  169  A    between atoms: _397  and  _399
REMARK  170  A    between atoms: _399  and  _400
REMARK  171  A    between atoms: _399  and  _402
REMARK  172  A    between atoms: _402  and  _403
REMARK  173  A    between atoms: _403  and  _404
REMARK  174  A    between atoms: _404  and  _405
REMARK  175  A    between atoms: _405  and  _406
REMARK  176  A    between atoms: _410  and  _412
REMARK  177  A    between atoms: _412  and  _413
REMARK  178  A    between atoms: _416  and  _418
REMARK  179  A    between atoms: _418  and  _419
REMARK  180  A    between atoms: _418  and  _421
REMARK  181  A    between atoms: _421  and  _422
REMARK  182  A    between atoms: _432  and  _434
REMARK  183  A    between atoms: _434  and  _435
REMARK  184  A    between atoms: _434  and  _437
REMARK  185  A    between atoms: _437  and  _438
REMARK  186  A    between atoms: _438  and  _439
REMARK  187  A    between atoms: _442  and  _444
REMARK  188  A    between atoms: _444  and  _445
REMARK  189  A    between atoms: _444  and  _447
REMARK  190  A    between atoms: _447  and  _448
REMARK  191  A    between atoms: _450  and  _452
REMARK  192  A    between atoms: _452  and  _453
REMARK  193  A    between atoms: _452  and  _455
REMARK  194  A    between atoms: _455  and  _456
REMARK  195  A    between atoms: _462  and  _464
REMARK  196  A    between atoms: _464  and  _465
REMARK  197  A    between atoms: _464  and  _467
REMARK  198  A    between atoms: _467  and  _468
REMARK  199  A    between atoms: _471  and  _473
REMARK  200  A    between atoms: _473  and  _474
REMARK  201  A    between atoms: _473  and  _476
REMARK  202  A    between atoms: _479  and  _481
REMARK  203  A    between atoms: _481  and  _482
REMARK  204  A    between atoms: _484  and  _486
REMARK  205  A    between atoms: _486  and  _487
REMARK  206  A    between atoms: _486  and  _489
REMARK  207  A    between atoms: _489  and  _490
REMARK  208  A    between atoms: _493  and  _495
REMARK  209  A    between atoms: _495  and  _496
REMARK  210  A    between atoms: _495  and  _498
REMARK  211  A    between atoms: _498  and  _499
REMARK  212  A    between atoms: _499  and  _500
REMARK  213  A    between atoms: _500  and  _501
REMARK  214  A    between atoms: _501  and  _502
REMARK  215  A    between atoms: _506  and  _508
REMARK  216  A    between atoms: _508  and  _509
REMARK  217  A    between atoms: _508  and  _511
REMARK  218  A    between atoms: _514  and  _516
REMARK  219  A    between atoms: _516  and  _517
REMARK  220  A    between atoms: _516  and  _519
REMARK  221  A    between atoms: _519  and  _520
REMARK                            x       y       z     vdW  Elec       q    Type
REMARK                         _______ _______ _______ _____ _____    ______ ____
ROOT
ATOM      1  O   HOH     1       7.025   9.356  22.403  0.00  0.00    +0.000 OA
ENDROOT
TORSDOF 0
REMARK  Name = ../refined-set-2016/4bqg/4bqg_pocket.pdb
REMARK  221 active torsions:
REMARK  status: ('A' for Active; 'I' for Inactive)
REMARK    1  A    between atoms: _1  and  _3
REMARK    2  A    between atoms: _3  and  _4
REMARK    3  A    between atoms: _3  and  _6
REMARK    4  A    between atoms: _6  and  _7
REMARK    5  A    between atoms: _13  and  _15
REMARK    6  A    between atoms: _15  and  _16
REMARK    7  A    between atoms: _15  and  _18
REMARK    8  A    between atoms: _18  and  _19
REMARK    9  A    between atoms: _22  and  _24
REMARK   10  A    between atoms: _24  and  _25
REMARK   11  A    between atoms: _24  and  _27
REMARK   12  A    between atoms: _27  and  _28
REMARK   13  A    between atoms: _28  and  _29
REMARK   14  A    between atoms: _31  and  _33
REMARK   15  A    between atoms: _33  and  _34
REMARK   16  A    between atoms: _33  and  _36
REMARK   17  A    between atoms: _36  and  _37
REMARK   18  A    between atoms: _43  and  _45
REMARK   19  A    between atoms: _45  and  _46
REMARK   20  A    between atoms: _45  and  _48
REMARK   21  A    between atoms: _48  and  _49
REMARK   22  A    between atoms: _52  and  _54
REMARK   23  A    between atoms: _54  and  _55
REMARK   24  A    between atoms: _54  and  _57
REMARK   25  A    between atoms: _57  and  _58
REMARK   26  A    between atoms: _58  and  _59
REMARK   27  A    between atoms: _62  and  _64
REMARK   28  A    between atoms: _64  and  _65
REMARK   29  A    between atoms: _64  and  _67
REMARK   30  A    between atoms: _67  and  _68
REMARK   31  A    between atoms: _71  and  _73
REMARK   32  A    between atoms: _73  and  _74
REMARK   33  A    between atoms: _73  and  _76
REMARK   34  A    between atoms: _76  and  _77
REMARK   35  A    between atoms: _80  and  _82
REMARK   36  A    between atoms: _82  and  _83
REMARK   37  A    between atoms: _82  and  _85
REMARK   38  A    between atoms: _85  and  _86
REMARK   39  A    between atoms: _88  and  _90
REMARK   40  A    between atoms: _90  and  _91
REMARK   41  A    between atoms: _90  and  _93
REMARK   42  A    between atoms: _93  and  _94
REMARK   43  A    between atoms: _99  and  _101
REMARK   44  A    between atoms: _101  and  _102
REMARK   45  A    between atoms: _101  and  _104
REMARK   46  A    between atoms: _104  and  _105
REMARK   47  A    between atoms: _107  and  _109
REMARK   48  A    between atoms: _109  and  _110
REMARK   49  A    between atoms: _109  and  _112
REMARK   50  A    between atoms: _112  and  _113
REMARK   51  A    between atoms: _115  and  _117
REMARK   52  A    between atoms: _117  and  _118
REMARK   53  A    between atoms: _117  and  _120
REMARK   54  A    between atoms: _120  and  _121
REMARK   55  A    between atoms: _124  and  _126
REMARK   56  A    between atoms: _126  and  _127
REMARK   57  A    between atoms: _130  and  _132
REMARK   58  A    between atoms: _132  and  _133
REMARK   59  A    between atoms: _132  and  _135
REMARK   60  A    between atoms: _135  and  _136
REMARK   61  A    between atoms: _139  and  _141
REMARK   62  A    between atoms: _141  and  _142
REMARK   63  A    between atoms: _141  and  _144
REMARK   64  A    between atoms: _144  and  _145
REMARK   65  A    between atoms: _145  and  _146
REMARK   66  A    between atoms: _146  and  _147
REMARK   67  A    between atoms: _147  and  _148
REMARK   68  A    between atoms: _152  and  _154
REMARK   69  A    between atoms: _154  and  _155
REMARK   70  A    between atoms: _154  and  _157
REMARK   71  A    between atoms: _157  and  _158
REMARK   72  A    between atoms: _161  and  _163
REMARK   73  A    between atoms: _163  and  _164
REMARK   74  A    between atoms: _163  and  _166
REMARK   75  A    between atoms: _169  and  _171
REMARK   76  A    between atoms: _171  and  _172
REMARK   77  A    between atoms: _171  and  _174
REMARK   78  A    between atoms: _174  and  _175
REMARK   79  A    between atoms: _178  and  _180
REMARK   80  A    between atoms: _180  and  _181
REMARK   81  A    between atoms: _180  and  _183
REMARK   82  A    between atoms: _183  and  _184
REMARK   83  A    between atoms: _187  and  _189
REMARK   84  A    between atoms: _189  and  _190
REMARK   85  A    between atoms: _192  and  _194
REMARK   86  A    between atoms: _194  and  _195
REMARK   87  A    between atoms: _194  and  _197
REMARK   88  A    between atoms: _197  and  _198
REMARK   89  A    between atoms: _201  and  _203
REMARK   90  A    between atoms: _203  and  _204
REMARK   91  A    between atoms: _206  and  _208
REMARK   92  A    between atoms: _208  and  _209
REMARK   93  A    between atoms: _208  and  _211
REMARK   94  A    between atoms: _211  and  _212
REMARK   95  A    between atoms: _212  and  _213
REMARK   96  A    between atoms: _215  and  _217
REMARK   97  A    between atoms: _217  and  _218
REMARK   98  A    between atoms: _217  and  _220
REMARK   99  A    between atoms: _220  and  _221
REMARK  100  A    between atoms: _224  and  _226
REMARK  101  A    between atoms: _226  and  _227
REMARK  102  A    between atoms: _226  and  _229
REMARK  103  A    between atoms: _229  and  _230
REMARK  104  A    between atoms: _233  and  _235
REMARK  105  A    between atoms: _235  and  _236
REMARK  106  A    between atoms: _235  and  _238
REMARK  107  A    between atoms: _238  and  _239
REMARK  108  A    between atoms: _242  and  _244
REMARK  109  A    between atoms: _244  and  _245
REMARK  110  A    between atoms: _244  and  _247
REMARK  111  A    between atoms: _247  and  _248
REMARK  112  A    between atoms: _253  and  _255
REMARK  113  A    between atoms: _255  and  _256
REMARK  114  A    between atoms: _255  and  _258
REMARK  115  A    between atoms: _258  and  _259
REMARK  116  A    between atoms: _262  and  _264
REMARK  117  A    between atoms: _264  and  _265
REMARK  118  A    between atoms: _267  and  _269
REMARK  119  A    between atoms: _269  and  _270
REMARK  120  A    between atoms: _269  and  _272
REMARK  121  A    between atoms: _272  and  _273
REMARK  122  A    between atoms: _276  and  _278
REMARK  123  A    between atoms: _278  and  _279
REMARK  124  A    between atoms: _282  and  _284
REMARK  125  A    between atoms: _284  and  _285
REMARK  126  A    between atoms: _287  and  _289
REMARK  127  A    between atoms: _289  and  _290
REMARK  128  A    between atoms: _289  and  _292
REMARK  129  A    between atoms: _295  and  _297
REMARK  130  A    between atoms: _297  and  _298
REMARK  131  A    between atoms: _300  and  _302
REMARK  132  A    between atoms: _302  and  _303
REMARK  133  A    between atoms: _302  and  _305
REMARK  134  A    between atoms: _305  and  _306
REMARK  135  A    between atoms: _312  and  _314
REMARK  136  A    between atoms: _314  and  _315
REMARK  137  A    between atoms: _314  and  _317
REMARK  138  A    between atoms: _317  and  _318
REMARK  139  A    between atoms: _323  and  _324
REMARK  140  A    between atoms: _326  and  _328
REMARK  141  A    between atoms: _328  and  _329
REMARK  142  A    between atoms: _328  and  _331
REMARK  143  A    between atoms: _331  and  _332
REMARK  144  A    between atoms: _334  and  _336
REMARK  145  A    between atoms: _336  and  _337
REMARK  146  A    between atoms: _340  and  _342
REMARK  147  A    between atoms: _342  and  _343
REMARK  148  A    between atoms: _342  and  _345
REMARK  149  A    between atoms: _345  and  _346
REMARK  150  A    between atoms: _351  and  _352
REMARK  151  A    between atoms: _354  and  _356
REMARK  152  A    between atoms: _356  and  _357
REMARK  153  A    between atoms: _356  and  _359
REMARK  154  A    between atoms: _362  and  _364
REMARK  155  A    between atoms: _364  and  _365
REMARK  156  A    between atoms: _364  and  _367
REMARK  157  A    between atoms: _367  and  _368
REMARK  158  A    between atoms: _371  and  _373
REMARK  159  A    between atoms: _373  and  _374
REMARK  160  A    between atoms: _373  and  _376
REMARK  161  A    between atoms: _379  and  _381
REMARK  162  A    between atoms: _381  and  _382
REMARK  163  A    between atoms: _381  and  _384
REMARK  164  A    between atoms: _384  and  _385
REMARK  165  A    between atoms: _388  and  _390
REMARK  166  A    between atoms: _390  and  _391
REMARK  167  A    between atoms: _390  and  _393
REMARK  168  A    between atoms: _393  and  _394
REMARK  169  A    between atoms: _397  and  _399
REMARK  170  A    between atoms: _399  and  _400
REMARK  171  A    between atoms: _399  and  _402
REMARK  172  A    between atoms: _402  and  _403
REMARK  173  A    between atoms: _403  and  _404
REMARK  174  A    between atoms: _404  and  _405
REMARK  175  A    between atoms: _405  and  _406
REMARK  176  A    between atoms: _410  and  _412
REMARK  177  A    between atoms: _412  and  _413
REMARK  178  A    between atoms: _416  and  _418
REMARK  179  A    between atoms: _418  and  _419
REMARK  180  A    between atoms: _418  and  _421
REMARK  181  A    between atoms: _421  and  _422
REMARK  182  A    between atoms: _432  and  _434
REMARK  183  A    between atoms: _434  and  _435
REMARK  184  A    between atoms: _434  and  _437
REMARK  185  A    between atoms: _437  and  _438
REMARK  186  A    between atoms: _438  and  _439
REMARK  187  A    between atoms: _442  and  _444
REMARK  188  A    between atoms: _444  and  _445
REMARK  189  A    between atoms: _444  and  _447
REMARK  190  A    between atoms: _447  and  _448
REMARK  191  A    between atoms: _450  and  _452
REMARK  192  A    between atoms: _452  and  _453
REMARK  193  A    between atoms: _452  and  _455
REMARK  194  A    between atoms: _455  and  _456
REMARK  195  A    between atoms: _462  and  _464
REMARK  196  A    between atoms: _464  and  _465
REMARK  197  A    between atoms: _464  and  _467
REMARK  198  A    between atoms: _467  and  _468
REMARK  199  A    between atoms: _471  and  _473
REMARK  200  A    between atoms: _473  and  _474
REMARK  201  A    between atoms: _473  and  _476
REMARK  202  A    between atoms: _479  and  _481
REMARK  203  A    between atoms: _481  and  _482
REMARK  204  A    between atoms: _484  and  _486
REMARK  205  A    between atoms: _486  and  _487
REMARK  206  A    between atoms: _486  and  _489
REMARK  207  A    between atoms: _489  and  _490
REMARK  208  A    between atoms: _493  and  _495
REMARK  209  A    between atoms: _495  and  _496
REMARK  210  A    between atoms: _495  and  _498
REMARK  211  A    between atoms: _498  and  _499
REMARK  212  A    between atoms: _499  and  _500
REMARK  213  A    between atoms: _500  and  _501
REMARK  214  A    between atoms: _501  and  _502
REMARK  215  A    between atoms: _506  and  _508
REMARK  216  A    between atoms: _508  and  _509
REMARK  217  A    between atoms: _508  and  _511
REMARK  218  A    between atoms: _514  and  _516
REMARK  219  A    between atoms: _516  and  _517
REMARK  220  A    between atoms: _516  and  _519
REMARK  221  A    between atoms: _519  and  _520
REMARK                            x       y       z     vdW  Elec       q    Type
REMARK                         _______ _______ _______ _____ _____    ______ ____
ROOT
ATOM      1  O   HOH     1       1.971   7.995  16.993  0.00  0.00    +0.000 OA
ENDROOT
TORSDOF 0
REMARK  Name = ../refined-set-2016/4bqg/4bqg_pocket.pdb
REMARK  221 active torsions:
REMARK  status: ('A' for Active; 'I' for Inactive)
REMARK    1  A    between atoms: _1  and  _3
REMARK    2  A    between atoms: _3  and  _4
REMARK    3  A    between atoms: _3  and  _6
REMARK    4  A    between atoms: _6  and  _7
REMARK    5  A    between atoms: _13  and  _15
REMARK    6  A    between atoms: _15  and  _16
REMARK    7  A    between atoms: _15  and  _18
REMARK    8  A    between atoms: _18  and  _19
REMARK    9  A    between atoms: _22  and  _24
REMARK   10  A    between atoms: _24  and  _25
REMARK   11  A    between atoms: _24  and  _27
REMARK   12  A    between atoms: _27  and  _28
REMARK   13  A    between atoms: _28  and  _29
REMARK   14  A    between atoms: _31  and  _33
REMARK   15  A    between atoms: _33  and  _34
REMARK   16  A    between atoms: _33  and  _36
REMARK   17  A    between atoms: _36  and  _37
REMARK   18  A    between atoms: _43  and  _45
REMARK   19  A    between atoms: _45  and  _46
REMARK   20  A    between atoms: _45  and  _48
REMARK   21  A    between atoms: _48  and  _49
REMARK   22  A    between atoms: _52  and  _54
REMARK   23  A    between atoms: _54  and  _55
REMARK   24  A    between atoms: _54  and  _57
REMARK   25  A    between atoms: _57  and  _58
REMARK   26  A    between atoms: _58  and  _59
REMARK   27  A    between atoms: _62  and  _64
REMARK   28  A    between atoms: _64  and  _65
REMARK   29  A    between atoms: _64  and  _67
REMARK   30  A    between atoms: _67  and  _68
REMARK   31  A    between atoms: _71  and  _73
REMARK   32  A    between atoms: _73  and  _74
REMARK   33  A    between atoms: _73  and  _76
REMARK   34  A    between atoms: _76  and  _77
REMARK   35  A    between atoms: _80  and  _82
REMARK   36  A    between atoms: _82  and  _83
REMARK   37  A    between atoms: _82  and  _85
REMARK   38  A    between atoms: _85  and  _86
REMARK   39  A    between atoms: _88  and  _90
REMARK   40  A    between atoms: _90  and  _91
REMARK   41  A    between atoms: _90  and  _93
REMARK   42  A    between atoms: _93  and  _94
REMARK   43  A    between atoms: _99  and  _101
REMARK   44  A    between atoms: _101  and  _102
REMARK   45  A    between atoms: _101  and  _104
REMARK   46  A    between atoms: _104  and  _105
REMARK   47  A    between atoms: _107  and  _109
REMARK   48  A    between atoms: _109  and  _110
REMARK   49  A    between atoms: _109  and  _112
REMARK   50  A    between atoms: _112  and  _113
REMARK   51  A    between atoms: _115  and  _117
REMARK   52  A    between atoms: _117  and  _118
REMARK   53  A    between atoms: _117  and  _120
REMARK   54  A    between atoms: _120  and  _121
REMARK   55  A    between atoms: _124  and  _126
REMARK   56  A    between atoms: _126  and  _127
REMARK   57  A    between atoms: _130  and  _132
REMARK   58  A    between atoms: _132  and  _133
REMARK   59  A    between atoms: _132  and  _135
REMARK   60  A    between atoms: _135  and  _136
REMARK   61  A    between atoms: _139  and  _141
REMARK   62  A    between atoms: _141  and  _142
REMARK   63  A    between atoms: _141  and  _144
REMARK   64  A    between atoms: _144  and  _145
REMARK   65  A    between atoms: _145  and  _146
REMARK   66  A    between atoms: _146  and  _147
REMARK   67  A    between atoms: _147  and  _148
REMARK   68  A    between atoms: _152  and  _154
REMARK   69  A    between atoms: _154  and  _155
REMARK   70  A    between atoms: _154  and  _157
REMARK   71  A    between atoms: _157  and  _158
REMARK   72  A    between atoms: _161  and  _163
REMARK   73  A    between atoms: _163  and  _164
REMARK   74  A    between atoms: _163  and  _166
REMARK   75  A    between atoms: _169  and  _171
REMARK   76  A    between atoms: _171  and  _172
REMARK   77  A    between atoms: _171  and  _174
REMARK   78  A    between atoms: _174  and  _175
REMARK   79  A    between atoms: _178  and  _180
REMARK   80  A    between atoms: _180  and  _181
REMARK   81  A    between atoms: _180  and  _183
REMARK   82  A    between atoms: _183  and  _184
REMARK   83  A    between atoms: _187  and  _189
REMARK   84  A    between atoms: _189  and  _190
REMARK   85  A    between atoms: _192  and  _194
REMARK   86  A    between atoms: _194  and  _195
REMARK   87  A    between atoms: _194  and  _197
REMARK   88  A    between atoms: _197  and  _198
REMARK   89  A    between atoms: _201  and  _203
REMARK   90  A    between atoms: _203  and  _204
REMARK   91  A    between atoms: _206  and  _208
REMARK   92  A    between atoms: _208  and  _209
REMARK   93  A    between atoms: _208  and  _211
REMARK   94  A    between atoms: _211  and  _212
REMARK   95  A    between atoms: _212  and  _213
REMARK   96  A    between atoms: _215  and  _217
REMARK   97  A    between atoms: _217  and  _218
REMARK   98  A    between atoms: _217  and  _220
REMARK   99  A    between atoms: _220  and  _221
REMARK  100  A    between atoms: _224  and  _226
REMARK  101  A    between atoms: _226  and  _227
REMARK  102  A    between atoms: _226  and  _229
REMARK  103  A    between atoms: _229  and  _230
REMARK  104  A    between atoms: _233  and  _235
REMARK  105  A    between atoms: _235  and  _236
REMARK  106  A    between atoms: _235  and  _238
REMARK  107  A    between atoms: _238  and  _239
REMARK  108  A    between atoms: _242  and  _244
REMARK  109  A    between atoms: _244  and  _245
REMARK  110  A    between atoms: _244  and  _247
REMARK  111  A    between atoms: _247  and  _248
REMARK  112  A    between atoms: _253  and  _255
REMARK  113  A    between atoms: _255  and  _256
REMARK  114  A    between atoms: _255  and  _258
REMARK  115  A    between atoms: _258  and  _259
REMARK  116  A    between atoms: _262  and  _264
REMARK  117  A    between atoms: _264  and  _265
REMARK  118  A    between atoms: _267  and  _269
REMARK  119  A    between atoms: _269  and  _270
REMARK  120  A    between atoms: _269  and  _272
REMARK  121  A    between atoms: _272  and  _273
REMARK  122  A    between atoms: _276  and  _278
REMARK  123  A    between atoms: _278  and  _279
REMARK  124  A    between atoms: _282  and  _284
REMARK  125  A    between atoms: _284  and  _285
REMARK  126  A    between atoms: _287  and  _289
REMARK  127  A    between atoms: _289  and  _290
REMARK  128  A    between atoms: _289  and  _292
REMARK  129  A    between atoms: _295  and  _297
REMARK  130  A    between atoms: _297  and  _298
REMARK  131  A    between atoms: _300  and  _302
REMARK  132  A    between atoms: _302  and  _303
REMARK  133  A    between atoms: _302  and  _305
REMARK  134  A    between atoms: _305  and  _306
REMARK  135  A    between atoms: _312  and  _314
REMARK  136  A    between atoms: _314  and  _315
REMARK  137  A    between atoms: _314  and  _317
REMARK  138  A    between atoms: _317  and  _318
REMARK  139  A    between atoms: _323  and  _324
REMARK  140  A    between atoms: _326  and  _328
REMARK  141  A    between atoms: _328  and  _329
REMARK  142  A    between atoms: _328  and  _331
REMARK  143  A    between atoms: _331  and  _332
REMARK  144  A    between atoms: _334  and  _336
REMARK  145  A    between atoms: _336  and  _337
REMARK  146  A    between atoms: _340  and  _342
REMARK  147  A    between atoms: _342  and  _343
REMARK  148  A    between atoms: _342  and  _345
REMARK  149  A    between atoms: _345  and  _346
REMARK  150  A    between atoms: _351  and  _352
REMARK  151  A    between atoms: _354  and  _356
REMARK  152  A    between atoms: _356  and  _357
REMARK  153  A    between atoms: _356  and  _359
REMARK  154  A    between atoms: _362  and  _364
REMARK  155  A    between atoms: _364  and  _365
REMARK  156  A    between atoms: _364  and  _367
REMARK  157  A    between atoms: _367  and  _368
REMARK  158  A    between atoms: _371  and  _373
REMARK  159  A    between atoms: _373  and  _374
REMARK  160  A    between atoms: _373  and  _376
REMARK  161  A    between atoms: _379  and  _381
REMARK  162  A    between atoms: _381  and  _382
REMARK  163  A    between atoms: _381  and  _384
REMARK  164  A    between atoms: _384  and  _385
REMARK  165  A    between atoms: _388  and  _390
REMARK  166  A    between atoms: _390  and  _391
REMARK  167  A    between atoms: _390  and  _393
REMARK  168  A    between atoms: _393  and  _394
REMARK  169  A    between atoms: _397  and  _399
REMARK  170  A    between atoms: _399  and  _400
REMARK  171  A    between atoms: _399  and  _402
REMARK  172  A    between atoms: _402  and  _403
REMARK  173  A    between atoms: _403  and  _404
REMARK  174  A    between atoms: _404  and  _405
REMARK  175  A    between atoms: _405  and  _406
REMARK  176  A    between atoms: _410  and  _412
REMARK  177  A    between atoms: _412  and  _413
REMARK  178  A    between atoms: _416  and  _418
REMARK  179  A    between atoms: _418  and  _419
REMARK  180  A    between atoms: _418  and  _421
REMARK  181  A    between atoms: _421  and  _422
REMARK  182  A    between atoms: _432  and  _434
REMARK  183  A    between atoms: _434  and  _435
REMARK  184  A    between atoms: _434  and  _437
REMARK  185  A    between atoms: _437  and  _438
REMARK  186  A    between atoms: _438  and  _439
REMARK  187  A    between atoms: _442  and  _444
REMARK  188  A    between atoms: _444  and  _445
REMARK  189  A    between atoms: _444  and  _447
REMARK  190  A    between atoms: _447  and  _448
REMARK  191  A    between atoms: _450  and  _452
REMARK  192  A    between atoms: _452  and  _453
REMARK  193  A    between atoms: _452  and  _455
REMARK  194  A    between atoms: _455  and  _456
REMARK  195  A    between atoms: _462  and  _464
REMARK  196  A    between atoms: _464  and  _465
REMARK  197  A    between atoms: _464  and  _467
REMARK  198  A    between atoms: _467  and  _468
REMARK  199  A    between atoms: _471  and  _473
REMARK  200  A    between atoms: _473  and  _474
REMARK  201  A    between atoms: _473  and  _476
REMARK  202  A    between atoms: _479  and  _481
REMARK  203  A    between atoms: _481  and  _482
REMARK  204  A    between atoms: _484  and  _486
REMARK  205  A    between atoms: _486  and  _487
REMARK  206  A    between atoms: _486  and  _489
REMARK  207  A    between atoms: _489  and  _490
REMARK  208  A    between atoms: _493  and  _495
REMARK  209  A    between atoms: _495  and  _496
REMARK  210  A    between atoms: _495  and  _498
REMARK  211  A    between atoms: _498  and  _499
REMARK  212  A    between atoms: _499  and  _500
REMARK  213  A    between atoms: _500  and  _501
REMARK  214  A    between atoms: _501  and  _502
REMARK  215  A    between atoms: _506  and  _508
REMARK  216  A    between atoms: _508  and  _509
REMARK  217  A    between atoms: _508  and  _511
REMARK  218  A    between atoms: _514  and  _516
REMARK  219  A    between atoms: _516  and  _517
REMARK  220  A    between atoms: _516  and  _519
REMARK  221  A    between atoms: _519  and  _520
REMARK                            x       y       z     vdW  Elec       q    Type
REMARK                         _______ _______ _______ _____ _____    ______ ____
ROOT
ATOM      1  O   HOH     1      -3.032  13.761  20.696  0.00  0.00    +0.000 OA
ENDROOT
TORSDOF 0
REMARK  Name = ../refined-set-2016/4bqg/4bqg_pocket.pdb
REMARK  221 active torsions:
REMARK  status: ('A' for Active; 'I' for Inactive)
REMARK    1  A    between atoms: _1  and  _3
REMARK    2  A    between atoms: _3  and  _4
REMARK    3  A    between atoms: _3  and  _6
REMARK    4  A    between atoms: _6  and  _7
REMARK    5  A    between atoms: _13  and  _15
REMARK    6  A    between atoms: _15  and  _16
REMARK    7  A    between atoms: _15  and  _18
REMARK    8  A    between atoms: _18  and  _19
REMARK    9  A    between atoms: _22  and  _24
REMARK   10  A    between atoms: _24  and  _25
REMARK   11  A    between atoms: _24  and  _27
REMARK   12  A    between atoms: _27  and  _28
REMARK   13  A    between atoms: _28  and  _29
REMARK   14  A    between atoms: _31  and  _33
REMARK   15  A    between atoms: _33  and  _34
REMARK   16  A    between atoms: _33  and  _36
REMARK   17  A    between atoms: _36  and  _37
REMARK   18  A    between atoms: _43  and  _45
REMARK   19  A    between atoms: _45  and  _46
REMARK   20  A    between atoms: _45  and  _48
REMARK   21  A    between atoms: _48  and  _49
REMARK   22  A    between atoms: _52  and  _54
REMARK   23  A    between atoms: _54  and  _55
REMARK   24  A    between atoms: _54  and  _57
REMARK   25  A    between atoms: _57  and  _58
REMARK   26  A    between atoms: _58  and  _59
REMARK   27  A    between atoms: _62  and  _64
REMARK   28  A    between atoms: _64  and  _65
REMARK   29  A    between atoms: _64  and  _67
REMARK   30  A    between atoms: _67  and  _68
REMARK   31  A    between atoms: _71  and  _73
REMARK   32  A    between atoms: _73  and  _74
REMARK   33  A    between atoms: _73  and  _76
REMARK   34  A    between atoms: _76  and  _77
REMARK   35  A    between atoms: _80  and  _82
REMARK   36  A    between atoms: _82  and  _83
REMARK   37  A    between atoms: _82  and  _85
REMARK   38  A    between atoms: _85  and  _86
REMARK   39  A    between atoms: _88  and  _90
REMARK   40  A    between atoms: _90  and  _91
REMARK   41  A    between atoms: _90  and  _93
REMARK   42  A    between atoms: _93  and  _94
REMARK   43  A    between atoms: _99  and  _101
REMARK   44  A    between atoms: _101  and  _102
REMARK   45  A    between atoms: _101  and  _104
REMARK   46  A    between atoms: _104  and  _105
REMARK   47  A    between atoms: _107  and  _109
REMARK   48  A    between atoms: _109  and  _110
REMARK   49  A    between atoms: _109  and  _112
REMARK   50  A    between atoms: _112  and  _113
REMARK   51  A    between atoms: _115  and  _117
REMARK   52  A    between atoms: _117  and  _118
REMARK   53  A    between atoms: _117  and  _120
REMARK   54  A    between atoms: _120  and  _121
REMARK   55  A    between atoms: _124  and  _126
REMARK   56  A    between atoms: _126  and  _127
REMARK   57  A    between atoms: _130  and  _132
REMARK   58  A    between atoms: _132  and  _133
REMARK   59  A    between atoms: _132  and  _135
REMARK   60  A    between atoms: _135  and  _136
REMARK   61  A    between atoms: _139  and  _141
REMARK   62  A    between atoms: _141  and  _142
REMARK   63  A    between atoms: _141  and  _144
REMARK   64  A    between atoms: _144  and  _145
REMARK   65  A    between atoms: _145  and  _146
REMARK   66  A    between atoms: _146  and  _147
REMARK   67  A    between atoms: _147  and  _148
REMARK   68  A    between atoms: _152  and  _154
REMARK   69  A    between atoms: _154  and  _155
REMARK   70  A    between atoms: _154  and  _157
REMARK   71  A    between atoms: _157  and  _158
REMARK   72  A    between atoms: _161  and  _163
REMARK   73  A    between atoms: _163  and  _164
REMARK   74  A    between atoms: _163  and  _166
REMARK   75  A    between atoms: _169  and  _171
REMARK   76  A    between atoms: _171  and  _172
REMARK   77  A    between atoms: _171  and  _174
REMARK   78  A    between atoms: _174  and  _175
REMARK   79  A    between atoms: _178  and  _180
REMARK   80  A    between atoms: _180  and  _181
REMARK   81  A    between atoms: _180  and  _183
REMARK   82  A    between atoms: _183  and  _184
REMARK   83  A    between atoms: _187  and  _189
REMARK   84  A    between atoms: _189  and  _190
REMARK   85  A    between atoms: _192  and  _194
REMARK   86  A    between atoms: _194  and  _195
REMARK   87  A    between atoms: _194  and  _197
REMARK   88  A    between atoms: _197  and  _198
REMARK   89  A    between atoms: _201  and  _203
REMARK   90  A    between atoms: _203  and  _204
REMARK   91  A    between atoms: _206  and  _208
REMARK   92  A    between atoms: _208  and  _209
REMARK   93  A    between atoms: _208  and  _211
REMARK   94  A    between atoms: _211  and  _212
REMARK   95  A    between atoms: _212  and  _213
REMARK   96  A    between atoms: _215  and  _217
REMARK   97  A    between atoms: _217  and  _218
REMARK   98  A    between atoms: _217  and  _220
REMARK   99  A    between atoms: _220  and  _221
REMARK  100  A    between atoms: _224  and  _226
REMARK  101  A    between atoms: _226  and  _227
REMARK  102  A    between atoms: _226  and  _229
REMARK  103  A    between atoms: _229  and  _230
REMARK  104  A    between atoms: _233  and  _235
REMARK  105  A    between atoms: _235  and  _236
REMARK  106  A    between atoms: _235  and  _238
REMARK  107  A    between atoms: _238  and  _239
REMARK  108  A    between atoms: _242  and  _244
REMARK  109  A    between atoms: _244  and  _245
REMARK  110  A    between atoms: _244  and  _247
REMARK  111  A    between atoms: _247  and  _248
REMARK  112  A    between atoms: _253  and  _255
REMARK  113  A    between atoms: _255  and  _256
REMARK  114  A    between atoms: _255  and  _258
REMARK  115  A    between atoms: _258  and  _259
REMARK  116  A    between atoms: _262  and  _264
REMARK  117  A    between atoms: _264  and  _265
REMARK  118  A    between atoms: _267  and  _269
REMARK  119  A    between atoms: _269  and  _270
REMARK  120  A    between atoms: _269  and  _272
REMARK  121  A    between atoms: _272  and  _273
REMARK  122  A    between atoms: _276  and  _278
REMARK  123  A    between atoms: _278  and  _279
REMARK  124  A    between atoms: _282  and  _284
REMARK  125  A    between atoms: _284  and  _285
REMARK  126  A    between atoms: _287  and  _289
REMARK  127  A    between atoms: _289  and  _290
REMARK  128  A    between atoms: _289  and  _292
REMARK  129  A    between atoms: _295  and  _297
REMARK  130  A    between atoms: _297  and  _298
REMARK  131  A    between atoms: _300  and  _302
REMARK  132  A    between atoms: _302  and  _303
REMARK  133  A    between atoms: _302  and  _305
REMARK  134  A    between atoms: _305  and  _306
REMARK  135  A    between atoms: _312  and  _314
REMARK  136  A    between atoms: _314  and  _315
REMARK  137  A    between atoms: _314  and  _317
REMARK  138  A    between atoms: _317  and  _318
REMARK  139  A    between atoms: _323  and  _324
REMARK  140  A    between atoms: _326  and  _328
REMARK  141  A    between atoms: _328  and  _329
REMARK  142  A    between atoms: _328  and  _331
REMARK  143  A    between atoms: _331  and  _332
REMARK  144  A    between atoms: _334  and  _336
REMARK  145  A    between atoms: _336  and  _337
REMARK  146  A    between atoms: _340  and  _342
REMARK  147  A    between atoms: _342  and  _343
REMARK  148  A    between atoms: _342  and  _345
REMARK  149  A    between atoms: _345  and  _346
REMARK  150  A    between atoms: _351  and  _352
REMARK  151  A    between atoms: _354  and  _356
REMARK  152  A    between atoms: _356  and  _357
REMARK  153  A    between atoms: _356  and  _359
REMARK  154  A    between atoms: _362  and  _364
REMARK  155  A    between atoms: _364  and  _365
REMARK  156  A    between atoms: _364  and  _367
REMARK  157  A    between atoms: _367  and  _368
REMARK  158  A    between atoms: _371  and  _373
REMARK  159  A    between atoms: _373  and  _374
REMARK  160  A    between atoms: _373  and  _376
REMARK  161  A    between atoms: _379  and  _381
REMARK  162  A    between atoms: _381  and  _382
REMARK  163  A    between atoms: _381  and  _384
REMARK  164  A    between atoms: _384  and  _385
REMARK  165  A    between atoms: _388  and  _390
REMARK  166  A    between atoms: _390  and  _391
REMARK  167  A    between atoms: _390  and  _393
REMARK  168  A    between atoms: _393  and  _394
REMARK  169  A    between atoms: _397  and  _399
REMARK  170  A    between atoms: _399  and  _400
REMARK  171  A    between atoms: _399  and  _402
REMARK  172  A    between atoms: _402  and  _403
REMARK  173  A    between atoms: _403  and  _404
REMARK  174  A    between atoms: _404  and  _405
REMARK  175  A    between atoms: _405  and  _406
REMARK  176  A    between atoms: _410  and  _412
REMARK  177  A    between atoms: _412  and  _413
REMARK  178  A    between atoms: _416  and  _418
REMARK  179  A    between atoms: _418  and  _419
REMARK  180  A    between atoms: _418  and  _421
REMARK  181  A    between atoms: _421  and  _422
REMARK  182  A    between atoms: _432  and  _434
REMARK  183  A    between atoms: _434  and  _435
REMARK  184  A    between atoms: _434  and  _437
REMARK  185  A    between atoms: _437  and  _438
REMARK  186  A    between atoms: _438  and  _439
REMARK  187  A    between atoms: _442  and  _444
REMARK  188  A    between atoms: _444  and  _445
REMARK  189  A    between atoms: _444  and  _447
REMARK  190  A    between atoms: _447  and  _448
REMARK  191  A    between atoms: _450  and  _452
REMARK  192  A    between atoms: _452  and  _453
REMARK  193  A    between atoms: _452  and  _455
REMARK  194  A    between atoms: _455  and  _456
REMARK  195  A    between atoms: _462  and  _464
REMARK  196  A    between atoms: _464  and  _465
REMARK  197  A    between atoms: _464  and  _467
REMARK  198  A    between atoms: _467  and  _468
REMARK  199  A    between atoms: _471  and  _473
REMARK  200  A    between atoms: _473  and  _474
REMARK  201  A    between atoms: _473  and  _476
REMARK  202  A    between atoms: _479  and  _481
REMARK  203  A    between atoms: _481  and  _482
REMARK  204  A    between atoms: _484  and  _486
REMARK  205  A    between atoms: _486  and  _487
REMARK  206  A    between atoms: _486  and  _489
REMARK  207  A    between atoms: _489  and  _490
REMARK  208  A    between atoms: _493  and  _495
REMARK  209  A    between atoms: _495  and  _496
REMARK  210  A    between atoms: _495  and  _498
REMARK  211  A    between atoms: _498  and  _499
REMARK  212  A    between atoms: _499  and  _500
REMARK  213  A    between atoms: _500  and  _501
REMARK  214  A    between atoms: _501  and  _502
REMARK  215  A    between atoms: _506  and  _508
REMARK  216  A    between atoms: _508  and  _509
REMARK  217  A    between atoms: _508  and  _511
REMARK  218  A    between atoms: _514  and  _516
REMARK  219  A    between atoms: _516  and  _517
REMARK  220  A    between atoms: _516  and  _519
REMARK  221  A    between atoms: _519  and  _520
REMARK                            x       y       z     vdW  Elec       q    Type
REMARK                         _______ _______ _______ _____ _____    ______ ____
ROOT
ATOM      1  O   HOH     1       0.593   5.655  18.977  0.00  0.00    +0.000 OA
ENDROOT
TORSDOF 0
REMARK  Name = ../refined-set-2016/4bqg/4bqg_pocket.pdb
REMARK  221 active torsions:
REMARK  status: ('A' for Active; 'I' for Inactive)
REMARK    1  A    between atoms: _1  and  _3
REMARK    2  A    between atoms: _3  and  _4
REMARK    3  A    between atoms: _3  and  _6
REMARK    4  A    between atoms: _6  and  _7
REMARK    5  A    between atoms: _13  and  _15
REMARK    6  A    between atoms: _15  and  _16
REMARK    7  A    between atoms: _15  and  _18
REMARK    8  A    between atoms: _18  and  _19
REMARK    9  A    between atoms: _22  and  _24
REMARK   10  A    between atoms: _24  and  _25
REMARK   11  A    between atoms: _24  and  _27
REMARK   12  A    between atoms: _27  and  _28
REMARK   13  A    between atoms: _28  and  _29
REMARK   14  A    between atoms: _31  and  _33
REMARK   15  A    between atoms: _33  and  _34
REMARK   16  A    between atoms: _33  and  _36
REMARK   17  A    between atoms: _36  and  _37
REMARK   18  A    between atoms: _43  and  _45
REMARK   19  A    between atoms: _45  and  _46
REMARK   20  A    between atoms: _45  and  _48
REMARK   21  A    between atoms: _48  and  _49
REMARK   22  A    between atoms: _52  and  _54
REMARK   23  A    between atoms: _54  and  _55
REMARK   24  A    between atoms: _54  and  _57
REMARK   25  A    between atoms: _57  and  _58
REMARK   26  A    between atoms: _58  and  _59
REMARK   27  A    between atoms: _62  and  _64
REMARK   28  A    between atoms: _64  and  _65
REMARK   29  A    between atoms: _64  and  _67
REMARK   30  A    between atoms: _67  and  _68
REMARK   31  A    between atoms: _71  and  _73
REMARK   32  A    between atoms: _73  and  _74
REMARK   33  A    between atoms: _73  and  _76
REMARK   34  A    between atoms: _76  and  _77
REMARK   35  A    between atoms: _80  and  _82
REMARK   36  A    between atoms: _82  and  _83
REMARK   37  A    between atoms: _82  and  _85
REMARK   38  A    between atoms: _85  and  _86
REMARK   39  A    between atoms: _88  and  _90
REMARK   40  A    between atoms: _90  and  _91
REMARK   41  A    between atoms: _90  and  _93
REMARK   42  A    between atoms: _93  and  _94
REMARK   43  A    between atoms: _99  and  _101
REMARK   44  A    between atoms: _101  and  _102
REMARK   45  A    between atoms: _101  and  _104
REMARK   46  A    between atoms: _104  and  _105
REMARK   47  A    between atoms: _107  and  _109
REMARK   48  A    between atoms: _109  and  _110
REMARK   49  A    between atoms: _109  and  _112
REMARK   50  A    between atoms: _112  and  _113
REMARK   51  A    between atoms: _115  and  _117
REMARK   52  A    between atoms: _117  and  _118
REMARK   53  A    between atoms: _117  and  _120
REMARK   54  A    between atoms: _120  and  _121
REMARK   55  A    between atoms: _124  and  _126
REMARK   56  A    between atoms: _126  and  _127
REMARK   57  A    between atoms: _130  and  _132
REMARK   58  A    between atoms: _132  and  _133
REMARK   59  A    between atoms: _132  and  _135
REMARK   60  A    between atoms: _135  and  _136
REMARK   61  A    between atoms: _139  and  _141
REMARK   62  A    between atoms: _141  and  _142
REMARK   63  A    between atoms: _141  and  _144
REMARK   64  A    between atoms: _144  and  _145
REMARK   65  A    between atoms: _145  and  _146
REMARK   66  A    between atoms: _146  and  _147
REMARK   67  A    between atoms: _147  and  _148
REMARK   68  A    between atoms: _152  and  _154
REMARK   69  A    between atoms: _154  and  _155
REMARK   70  A    between atoms: _154  and  _157
REMARK   71  A    between atoms: _157  and  _158
REMARK   72  A    between atoms: _161  and  _163
REMARK   73  A    between atoms: _163  and  _164
REMARK   74  A    between atoms: _163  and  _166
REMARK   75  A    between atoms: _169  and  _171
REMARK   76  A    between atoms: _171  and  _172
REMARK   77  A    between atoms: _171  and  _174
REMARK   78  A    between atoms: _174  and  _175
REMARK   79  A    between atoms: _178  and  _180
REMARK   80  A    between atoms: _180  and  _181
REMARK   81  A    between atoms: _180  and  _183
REMARK   82  A    between atoms: _183  and  _184
REMARK   83  A    between atoms: _187  and  _189
REMARK   84  A    between atoms: _189  and  _190
REMARK   85  A    between atoms: _192  and  _194
REMARK   86  A    between atoms: _194  and  _195
REMARK   87  A    between atoms: _194  and  _197
REMARK   88  A    between atoms: _197  and  _198
REMARK   89  A    between atoms: _201  and  _203
REMARK   90  A    between atoms: _203  and  _204
REMARK   91  A    between atoms: _206  and  _208
REMARK   92  A    between atoms: _208  and  _209
REMARK   93  A    between atoms: _208  and  _211
REMARK   94  A    between atoms: _211  and  _212
REMARK   95  A    between atoms: _212  and  _213
REMARK   96  A    between atoms: _215  and  _217
REMARK   97  A    between atoms: _217  and  _218
REMARK   98  A    between atoms: _217  and  _220
REMARK   99  A    between atoms: _220  and  _221
REMARK  100  A    between atoms: _224  and  _226
REMARK  101  A    between atoms: _226  and  _227
REMARK  102  A    between atoms: _226  and  _229
REMARK  103  A    between atoms: _229  and  _230
REMARK  104  A    between atoms: _233  and  _235
REMARK  105  A    between atoms: _235  and  _236
REMARK  106  A    between atoms: _235  and  _238
REMARK  107  A    between atoms: _238  and  _239
REMARK  108  A    between atoms: _242  and  _244
REMARK  109  A    between atoms: _244  and  _245
REMARK  110  A    between atoms: _244  and  _247
REMARK  111  A    between atoms: _247  and  _248
REMARK  112  A    between atoms: _253  and  _255
REMARK  113  A    between atoms: _255  and  _256
REMARK  114  A    between atoms: _255  and  _258
REMARK  115  A    between atoms: _258  and  _259
REMARK  116  A    between atoms: _262  and  _264
REMARK  117  A    between atoms: _264  and  _265
REMARK  118  A    between atoms: _267  and  _269
REMARK  119  A    between atoms: _269  and  _270
REMARK  120  A    between atoms: _269  and  _272
REMARK  121  A    between atoms: _272  and  _273
REMARK  122  A    between atoms: _276  and  _278
REMARK  123  A    between atoms: _278  and  _279
REMARK  124  A    between atoms: _282  and  _284
REMARK  125  A    between atoms: _284  and  _285
REMARK  126  A    between atoms: _287  and  _289
REMARK  127  A    between atoms: _289  and  _290
REMARK  128  A    between atoms: _289  and  _292
REMARK  129  A    between atoms: _295  and  _297
REMARK  130  A    between atoms: _297  and  _298
REMARK  131  A    between atoms: _300  and  _302
REMARK  132  A    between atoms: _302  and  _303
REMARK  133  A    between atoms: _302  and  _305
REMARK  134  A    between atoms: _305  and  _306
REMARK  135  A    between atoms: _312  and  _314
REMARK  136  A    between atoms: _314  and  _315
REMARK  137  A    between atoms: _314  and  _317
REMARK  138  A    between atoms: _317  and  _318
REMARK  139  A    between atoms: _323  and  _324
REMARK  140  A    between atoms: _326  and  _328
REMARK  141  A    between atoms: _328  and  _329
REMARK  142  A    between atoms: _328  and  _331
REMARK  143  A    between atoms: _331  and  _332
REMARK  144  A    between atoms: _334  and  _336
REMARK  145  A    between atoms: _336  and  _337
REMARK  146  A    between atoms: _340  and  _342
REMARK  147  A    between atoms: _342  and  _343
REMARK  148  A    between atoms: _342  and  _345
REMARK  149  A    between atoms: _345  and  _346
REMARK  150  A    between atoms: _351  and  _352
REMARK  151  A    between atoms: _354  and  _356
REMARK  152  A    between atoms: _356  and  _357
REMARK  153  A    between atoms: _356  and  _359
REMARK  154  A    between atoms: _362  and  _364
REMARK  155  A    between atoms: _364  and  _365
REMARK  156  A    between atoms: _364  and  _367
REMARK  157  A    between atoms: _367  and  _368
REMARK  158  A    between atoms: _371  and  _373
REMARK  159  A    between atoms: _373  and  _374
REMARK  160  A    between atoms: _373  and  _376
REMARK  161  A    between atoms: _379  and  _381
REMARK  162  A    between atoms: _381  and  _382
REMARK  163  A    between atoms: _381  and  _384
REMARK  164  A    between atoms: _384  and  _385
REMARK  165  A    between atoms: _388  and  _390
REMARK  166  A    between atoms: _390  and  _391
REMARK  167  A    between atoms: _390  and  _393
REMARK  168  A    between atoms: _393  and  _394
REMARK  169  A    between atoms: _397  and  _399
REMARK  170  A    between atoms: _399  and  _400
REMARK  171  A    between atoms: _399  and  _402
REMARK  172  A    between atoms: _402  and  _403
REMARK  173  A    between atoms: _403  and  _404
REMARK  174  A    between atoms: _404  and  _405
REMARK  175  A    between atoms: _405  and  _406
REMARK  176  A    between atoms: _410  and  _412
REMARK  177  A    between atoms: _412  and  _413
REMARK  178  A    between atoms: _416  and  _418
REMARK  179  A    between atoms: _418  and  _419
REMARK  180  A    between atoms: _418  and  _421
REMARK  181  A    between atoms: _421  and  _422
REMARK  182  A    between atoms: _432  and  _434
REMARK  183  A    between atoms: _434  and  _435
REMARK  184  A    between atoms: _434  and  _437
REMARK  185  A    between atoms: _437  and  _438
REMARK  186  A    between atoms: _438  and  _439
REMARK  187  A    between atoms: _442  and  _444
REMARK  188  A    between atoms: _444  and  _445
REMARK  189  A    between atoms: _444  and  _447
REMARK  190  A    between atoms: _447  and  _448
REMARK  191  A    between atoms: _450  and  _452
REMARK  192  A    between atoms: _452  and  _453
REMARK  193  A    between atoms: _452  and  _455
REMARK  194  A    between atoms: _455  and  _456
REMARK  195  A    between atoms: _462  and  _464
REMARK  196  A    between atoms: _464  and  _465
REMARK  197  A    between atoms: _464  and  _467
REMARK  198  A    between atoms: _467  and  _468
REMARK  199  A    between atoms: _471  and  _473
REMARK  200  A    between atoms: _473  and  _474
REMARK  201  A    between atoms: _473  and  _476
REMARK  202  A    between atoms: _479  and  _481
REMARK  203  A    between atoms: _481  and  _482
REMARK  204  A    between atoms: _484  and  _486
REMARK  205  A    between atoms: _486  and  _487
REMARK  206  A    between atoms: _486  and  _489
REMARK  207  A    between atoms: _489  and  _490
REMARK  208  A    between atoms: _493  and  _495
REMARK  209  A    between atoms: _495  and  _496
REMARK  210  A    between atoms: _495  and  _498
REMARK  211  A    between atoms: _498  and  _499
REMARK  212  A    between atoms: _499  and  _500
REMARK  213  A    between atoms: _500  and  _501
REMARK  214  A    between atoms: _501  and  _502
REMARK  215  A    between atoms: _506  and  _508
REMARK  216  A    between atoms: _508  and  _509
REMARK  217  A    between atoms: _508  and  _511
REMARK  218  A    between atoms: _514  and  _516
REMARK  219  A    between atoms: _516  and  _517
REMARK  220  A    between atoms: _516  and  _519
REMARK  221  A    between atoms: _519  and  _520
REMARK                            x       y       z     vdW  Elec       q    Type
REMARK                         _______ _______ _______ _____ _____    ______ ____
ROOT
ATOM      1  O   HOH     1       0.037   7.415  24.453  0.00  0.00    +0.000 OA
ENDROOT
TORSDOF 0
REMARK  Name = ../refined-set-2016/4bqg/4bqg_pocket.pdb
REMARK  221 active torsions:
REMARK  status: ('A' for Active; 'I' for Inactive)
REMARK    1  A    between atoms: _1  and  _3
REMARK    2  A    between atoms: _3  and  _4
REMARK    3  A    between atoms: _3  and  _6
REMARK    4  A    between atoms: _6  and  _7
REMARK    5  A    between atoms: _13  and  _15
REMARK    6  A    between atoms: _15  and  _16
REMARK    7  A    between atoms: _15  and  _18
REMARK    8  A    between atoms: _18  and  _19
REMARK    9  A    between atoms: _22  and  _24
REMARK   10  A    between atoms: _24  and  _25
REMARK   11  A    between atoms: _24  and  _27
REMARK   12  A    between atoms: _27  and  _28
REMARK   13  A    between atoms: _28  and  _29
REMARK   14  A    between atoms: _31  and  _33
REMARK   15  A    between atoms: _33  and  _34
REMARK   16  A    between atoms: _33  and  _36
REMARK   17  A    between atoms: _36  and  _37
REMARK   18  A    between atoms: _43  and  _45
REMARK   19  A    between atoms: _45  and  _46
REMARK   20  A    between atoms: _45  and  _48
REMARK   21  A    between atoms: _48  and  _49
REMARK   22  A    between atoms: _52  and  _54
REMARK   23  A    between atoms: _54  and  _55
REMARK   24  A    between atoms: _54  and  _57
REMARK   25  A    between atoms: _57  and  _58
REMARK   26  A    between atoms: _58  and  _59
REMARK   27  A    between atoms: _62  and  _64
REMARK   28  A    between atoms: _64  and  _65
REMARK   29  A    between atoms: _64  and  _67
REMARK   30  A    between atoms: _67  and  _68
REMARK   31  A    between atoms: _71  and  _73
REMARK   32  A    between atoms: _73  and  _74
REMARK   33  A    between atoms: _73  and  _76
REMARK   34  A    between atoms: _76  and  _77
REMARK   35  A    between atoms: _80  and  _82
REMARK   36  A    between atoms: _82  and  _83
REMARK   37  A    between atoms: _82  and  _85
REMARK   38  A    between atoms: _85  and  _86
REMARK   39  A    between atoms: _88  and  _90
REMARK   40  A    between atoms: _90  and  _91
REMARK   41  A    between atoms: _90  and  _93
REMARK   42  A    between atoms: _93  and  _94
REMARK   43  A    between atoms: _99  and  _101
REMARK   44  A    between atoms: _101  and  _102
REMARK   45  A    between atoms: _101  and  _104
REMARK   46  A    between atoms: _104  and  _105
REMARK   47  A    between atoms: _107  and  _109
REMARK   48  A    between atoms: _109  and  _110
REMARK   49  A    between atoms: _109  and  _112
REMARK   50  A    between atoms: _112  and  _113
REMARK   51  A    between atoms: _115  and  _117
REMARK   52  A    between atoms: _117  and  _118
REMARK   53  A    between atoms: _117  and  _120
REMARK   54  A    between atoms: _120  and  _121
REMARK   55  A    between atoms: _124  and  _126
REMARK   56  A    between atoms: _126  and  _127
REMARK   57  A    between atoms: _130  and  _132
REMARK   58  A    between atoms: _132  and  _133
REMARK   59  A    between atoms: _132  and  _135
REMARK   60  A    between atoms: _135  and  _136
REMARK   61  A    between atoms: _139  and  _141
REMARK   62  A    between atoms: _141  and  _142
REMARK   63  A    between atoms: _141  and  _144
REMARK   64  A    between atoms: _144  and  _145
REMARK   65  A    between atoms: _145  and  _146
REMARK   66  A    between atoms: _146  and  _147
REMARK   67  A    between atoms: _147  and  _148
REMARK   68  A    between atoms: _152  and  _154
REMARK   69  A    between atoms: _154  and  _155
REMARK   70  A    between atoms: _154  and  _157
REMARK   71  A    between atoms: _157  and  _158
REMARK   72  A    between atoms: _161  and  _163
REMARK   73  A    between atoms: _163  and  _164
REMARK   74  A    between atoms: _163  and  _166
REMARK   75  A    between atoms: _169  and  _171
REMARK   76  A    between atoms: _171  and  _172
REMARK   77  A    between atoms: _171  and  _174
REMARK   78  A    between atoms: _174  and  _175
REMARK   79  A    between atoms: _178  and  _180
REMARK   80  A    between atoms: _180  and  _181
REMARK   81  A    between atoms: _180  and  _183
REMARK   82  A    between atoms: _183  and  _184
REMARK   83  A    between atoms: _187  and  _189
REMARK   84  A    between atoms: _189  and  _190
REMARK   85  A    between atoms: _192  and  _194
REMARK   86  A    between atoms: _194  and  _195
REMARK   87  A    between atoms: _194  and  _197
REMARK   88  A    between atoms: _197  and  _198
REMARK   89  A    between atoms: _201  and  _203
REMARK   90  A    between atoms: _203  and  _204
REMARK   91  A    between atoms: _206  and  _208
REMARK   92  A    between atoms: _208  and  _209
REMARK   93  A    between atoms: _208  and  _211
REMARK   94  A    between atoms: _211  and  _212
REMARK   95  A    between atoms: _212  and  _213
REMARK   96  A    between atoms: _215  and  _217
REMARK   97  A    between atoms: _217  and  _218
REMARK   98  A    between atoms: _217  and  _220
REMARK   99  A    between atoms: _220  and  _221
REMARK  100  A    between atoms: _224  and  _226
REMARK  101  A    between atoms: _226  and  _227
REMARK  102  A    between atoms: _226  and  _229
REMARK  103  A    between atoms: _229  and  _230
REMARK  104  A    between atoms: _233  and  _235
REMARK  105  A    between atoms: _235  and  _236
REMARK  106  A    between atoms: _235  and  _238
REMARK  107  A    between atoms: _238  and  _239
REMARK  108  A    between atoms: _242  and  _244
REMARK  109  A    between atoms: _244  and  _245
REMARK  110  A    between atoms: _244  and  _247
REMARK  111  A    between atoms: _247  and  _248
REMARK  112  A    between atoms: _253  and  _255
REMARK  113  A    between atoms: _255  and  _256
REMARK  114  A    between atoms: _255  and  _258
REMARK  115  A    between atoms: _258  and  _259
REMARK  116  A    between atoms: _262  and  _264
REMARK  117  A    between atoms: _264  and  _265
REMARK  118  A    between atoms: _267  and  _269
REMARK  119  A    between atoms: _269  and  _270
REMARK  120  A    between atoms: _269  and  _272
REMARK  121  A    between atoms: _272  and  _273
REMARK  122  A    between atoms: _276  and  _278
REMARK  123  A    between atoms: _278  and  _279
REMARK  124  A    between atoms: _282  and  _284
REMARK  125  A    between atoms: _284  and  _285
REMARK  126  A    between atoms: _287  and  _289
REMARK  127  A    between atoms: _289  and  _290
REMARK  128  A    between atoms: _289  and  _292
REMARK  129  A    between atoms: _295  and  _297
REMARK  130  A    between atoms: _297  and  _298
REMARK  131  A    between atoms: _300  and  _302
REMARK  132  A    between atoms: _302  and  _303
REMARK  133  A    between atoms: _302  and  _305
REMARK  134  A    between atoms: _305  and  _306
REMARK  135  A    between atoms: _312  and  _314
REMARK  136  A    between atoms: _314  and  _315
REMARK  137  A    between atoms: _314  and  _317
REMARK  138  A    between atoms: _317  and  _318
REMARK  139  A    between atoms: _323  and  _324
REMARK  140  A    between atoms: _326  and  _328
REMARK  141  A    between atoms: _328  and  _329
REMARK  142  A    between atoms: _328  and  _331
REMARK  143  A    between atoms: _331  and  _332
REMARK  144  A    between atoms: _334  and  _336
REMARK  145  A    between atoms: _336  and  _337
REMARK  146  A    between atoms: _340  and  _342
REMARK  147  A    between atoms: _342  and  _343
REMARK  148  A    between atoms: _342  and  _345
REMARK  149  A    between atoms: _345  and  _346
REMARK  150  A    between atoms: _351  and  _352
REMARK  151  A    between atoms: _354  and  _356
REMARK  152  A    between atoms: _356  and  _357
REMARK  153  A    between atoms: _356  and  _359
REMARK  154  A    between atoms: _362  and  _364
REMARK  155  A    between atoms: _364  and  _365
REMARK  156  A    between atoms: _364  and  _367
REMARK  157  A    between atoms: _367  and  _368
REMARK  158  A    between atoms: _371  and  _373
REMARK  159  A    between atoms: _373  and  _374
REMARK  160  A    between atoms: _373  and  _376
REMARK  161  A    between atoms: _379  and  _381
REMARK  162  A    between atoms: _381  and  _382
REMARK  163  A    between atoms: _381  and  _384
REMARK  164  A    between atoms: _384  and  _385
REMARK  165  A    between atoms: _388  and  _390
REMARK  166  A    between atoms: _390  and  _391
REMARK  167  A    between atoms: _390  and  _393
REMARK  168  A    between atoms: _393  and  _394
REMARK  169  A    between atoms: _397  and  _399
REMARK  170  A    between atoms: _399  and  _400
REMARK  171  A    between atoms: _399  and  _402
REMARK  172  A    between atoms: _402  and  _403
REMARK  173  A    between atoms: _403  and  _404
REMARK  174  A    between atoms: _404  and  _405
REMARK  175  A    between atoms: _405  and  _406
REMARK  176  A    between atoms: _410  and  _412
REMARK  177  A    between atoms: _412  and  _413
REMARK  178  A    between atoms: _416  and  _418
REMARK  179  A    between atoms: _418  and  _419
REMARK  180  A    between atoms: _418  and  _421
REMARK  181  A    between atoms: _421  and  _422
REMARK  182  A    between atoms: _432  and  _434
REMARK  183  A    between atoms: _434  and  _435
REMARK  184  A    between atoms: _434  and  _437
REMARK  185  A    between atoms: _437  and  _438
REMARK  186  A    between atoms: _438  and  _439
REMARK  187  A    between atoms: _442  and  _444
REMARK  188  A    between atoms: _444  and  _445
REMARK  189  A    between atoms: _444  and  _447
REMARK  190  A    between atoms: _447  and  _448
REMARK  191  A    between atoms: _450  and  _452
REMARK  192  A    between atoms: _452  and  _453
REMARK  193  A    between atoms: _452  and  _455
REMARK  194  A    between atoms: _455  and  _456
REMARK  195  A    between atoms: _462  and  _464
REMARK  196  A    between atoms: _464  and  _465
REMARK  197  A    between atoms: _464  and  _467
REMARK  198  A    between atoms: _467  and  _468
REMARK  199  A    between atoms: _471  and  _473
REMARK  200  A    between atoms: _473  and  _474
REMARK  201  A    between atoms: _473  and  _476
REMARK  202  A    between atoms: _479  and  _481
REMARK  203  A    between atoms: _481  and  _482
REMARK  204  A    between atoms: _484  and  _486
REMARK  205  A    between atoms: _486  and  _487
REMARK  206  A    between atoms: _486  and  _489
REMARK  207  A    between atoms: _489  and  _490
REMARK  208  A    between atoms: _493  and  _495
REMARK  209  A    between atoms: _495  and  _496
REMARK  210  A    between atoms: _495  and  _498
REMARK  211  A    between atoms: _498  and  _499
REMARK  212  A    between atoms: _499  and  _500
REMARK  213  A    between atoms: _500  and  _501
REMARK  214  A    between atoms: _501  and  _502
REMARK  215  A    between atoms: _506  and  _508
REMARK  216  A    between atoms: _508  and  _509
REMARK  217  A    between atoms: _508  and  _511
REMARK  218  A    between atoms: _514  and  _516
REMARK  219  A    between atoms: _516  and  _517
REMARK  220  A    between atoms: _516  and  _519
REMARK  221  A    between atoms: _519  and  _520
REMARK                            x       y       z     vdW  Elec       q    Type
REMARK                         _______ _______ _______ _____ _____    ______ ____
ROOT
ATOM      1  O   HOH     1       4.974   9.135  20.346  0.00  0.00    +0.000 OA
ENDROOT
TORSDOF 0
REMARK  Name = ../refined-set-2016/4bqg/4bqg_pocket.pdb
REMARK  221 active torsions:
REMARK  status: ('A' for Active; 'I' for Inactive)
REMARK    1  A    between atoms: _1  and  _3
REMARK    2  A    between atoms: _3  and  _4
REMARK    3  A    between atoms: _3  and  _6
REMARK    4  A    between atoms: _6  and  _7
REMARK    5  A    between atoms: _13  and  _15
REMARK    6  A    between atoms: _15  and  _16
REMARK    7  A    between atoms: _15  and  _18
REMARK    8  A    between atoms: _18  and  _19
REMARK    9  A    between atoms: _22  and  _24
REMARK   10  A    between atoms: _24  and  _25
REMARK   11  A    between atoms: _24  and  _27
REMARK   12  A    between atoms: _27  and  _28
REMARK   13  A    between atoms: _28  and  _29
REMARK   14  A    between atoms: _31  and  _33
REMARK   15  A    between atoms: _33  and  _34
REMARK   16  A    between atoms: _33  and  _36
REMARK   17  A    between atoms: _36  and  _37
REMARK   18  A    between atoms: _43  and  _45
REMARK   19  A    between atoms: _45  and  _46
REMARK   20  A    between atoms: _45  and  _48
REMARK   21  A    between atoms: _48  and  _49
REMARK   22  A    between atoms: _52  and  _54
REMARK   23  A    between atoms: _54  and  _55
REMARK   24  A    between atoms: _54  and  _57
REMARK   25  A    between atoms: _57  and  _58
REMARK   26  A    between atoms: _58  and  _59
REMARK   27  A    between atoms: _62  and  _64
REMARK   28  A    between atoms: _64  and  _65
REMARK   29  A    between atoms: _64  and  _67
REMARK   30  A    between atoms: _67  and  _68
REMARK   31  A    between atoms: _71  and  _73
REMARK   32  A    between atoms: _73  and  _74
REMARK   33  A    between atoms: _73  and  _76
REMARK   34  A    between atoms: _76  and  _77
REMARK   35  A    between atoms: _80  and  _82
REMARK   36  A    between atoms: _82  and  _83
REMARK   37  A    between atoms: _82  and  _85
REMARK   38  A    between atoms: _85  and  _86
REMARK   39  A    between atoms: _88  and  _90
REMARK   40  A    between atoms: _90  and  _91
REMARK   41  A    between atoms: _90  and  _93
REMARK   42  A    between atoms: _93  and  _94
REMARK   43  A    between atoms: _99  and  _101
REMARK   44  A    between atoms: _101  and  _102
REMARK   45  A    between atoms: _101  and  _104
REMARK   46  A    between atoms: _104  and  _105
REMARK   47  A    between atoms: _107  and  _109
REMARK   48  A    between atoms: _109  and  _110
REMARK   49  A    between atoms: _109  and  _112
REMARK   50  A    between atoms: _112  and  _113
REMARK   51  A    between atoms: _115  and  _117
REMARK   52  A    between atoms: _117  and  _118
REMARK   53  A    between atoms: _117  and  _120
REMARK   54  A    between atoms: _120  and  _121
REMARK   55  A    between atoms: _124  and  _126
REMARK   56  A    between atoms: _126  and  _127
REMARK   57  A    between atoms: _130  and  _132
REMARK   58  A    between atoms: _132  and  _133
REMARK   59  A    between atoms: _132  and  _135
REMARK   60  A    between atoms: _135  and  _136
REMARK   61  A    between atoms: _139  and  _141
REMARK   62  A    between atoms: _141  and  _142
REMARK   63  A    between atoms: _141  and  _144
REMARK   64  A    between atoms: _144  and  _145
REMARK   65  A    between atoms: _145  and  _146
REMARK   66  A    between atoms: _146  and  _147
REMARK   67  A    between atoms: _147  and  _148
REMARK   68  A    between atoms: _152  and  _154
REMARK   69  A    between atoms: _154  and  _155
REMARK   70  A    between atoms: _154  and  _157
REMARK   71  A    between atoms: _157  and  _158
REMARK   72  A    between atoms: _161  and  _163
REMARK   73  A    between atoms: _163  and  _164
REMARK   74  A    between atoms: _163  and  _166
REMARK   75  A    between atoms: _169  and  _171
REMARK   76  A    between atoms: _171  and  _172
REMARK   77  A    between atoms: _171  and  _174
REMARK   78  A    between atoms: _174  and  _175
REMARK   79  A    between atoms: _178  and  _180
REMARK   80  A    between atoms: _180  and  _181
REMARK   81  A    between atoms: _180  and  _183
REMARK   82  A    between atoms: _183  and  _184
REMARK   83  A    between atoms: _187  and  _189
REMARK   84  A    between atoms: _189  and  _190
REMARK   85  A    between atoms: _192  and  _194
REMARK   86  A    between atoms: _194  and  _195
REMARK   87  A    between atoms: _194  and  _197
REMARK   88  A    between atoms: _197  and  _198
REMARK   89  A    between atoms: _201  and  _203
REMARK   90  A    between atoms: _203  and  _204
REMARK   91  A    between atoms: _206  and  _208
REMARK   92  A    between atoms: _208  and  _209
REMARK   93  A    between atoms: _208  and  _211
REMARK   94  A    between atoms: _211  and  _212
REMARK   95  A    between atoms: _212  and  _213
REMARK   96  A    between atoms: _215  and  _217
REMARK   97  A    between atoms: _217  and  _218
REMARK   98  A    between atoms: _217  and  _220
REMARK   99  A    between atoms: _220  and  _221
REMARK  100  A    between atoms: _224  and  _226
REMARK  101  A    between atoms: _226  and  _227
REMARK  102  A    between atoms: _226  and  _229
REMARK  103  A    between atoms: _229  and  _230
REMARK  104  A    between atoms: _233  and  _235
REMARK  105  A    between atoms: _235  and  _236
REMARK  106  A    between atoms: _235  and  _238
REMARK  107  A    between atoms: _238  and  _239
REMARK  108  A    between atoms: _242  and  _244
REMARK  109  A    between atoms: _244  and  _245
REMARK  110  A    between atoms: _244  and  _247
REMARK  111  A    between atoms: _247  and  _248
REMARK  112  A    between atoms: _253  and  _255
REMARK  113  A    between atoms: _255  and  _256
REMARK  114  A    between atoms: _255  and  _258
REMARK  115  A    between atoms: _258  and  _259
REMARK  116  A    between atoms: _262  and  _264
REMARK  117  A    between atoms: _264  and  _265
REMARK  118  A    between atoms: _267  and  _269
REMARK  119  A    between atoms: _269  and  _270
REMARK  120  A    between atoms: _269  and  _272
REMARK  121  A    between atoms: _272  and  _273
REMARK  122  A    between atoms: _276  and  _278
REMARK  123  A    between atoms: _278  and  _279
REMARK  124  A    between atoms: _282  and  _284
REMARK  125  A    between atoms: _284  and  _285
REMARK  126  A    between atoms: _287  and  _289
REMARK  127  A    between atoms: _289  and  _290
REMARK  128  A    between atoms: _289  and  _292
REMARK  129  A    between atoms: _295  and  _297
REMARK  130  A    between atoms: _297  and  _298
REMARK  131  A    between atoms: _300  and  _302
REMARK  132  A    between atoms: _302  and  _303
REMARK  133  A    between atoms: _302  and  _305
REMARK  134  A    between atoms: _305  and  _306
REMARK  135  A    between atoms: _312  and  _314
REMARK  136  A    between atoms: _314  and  _315
REMARK  137  A    between atoms: _314  and  _317
REMARK  138  A    between atoms: _317  and  _318
REMARK  139  A    between atoms: _323  and  _324
REMARK  140  A    between atoms: _326  and  _328
REMARK  141  A    between atoms: _328  and  _329
REMARK  142  A    between atoms: _328  and  _331
REMARK  143  A    between atoms: _331  and  _332
REMARK  144  A    between atoms: _334  and  _336
REMARK  145  A    between atoms: _336  and  _337
REMARK  146  A    between atoms: _340  and  _342
REMARK  147  A    between atoms: _342  and  _343
REMARK  148  A    between atoms: _342  and  _345
REMARK  149  A    between atoms: _345  and  _346
REMARK  150  A    between atoms: _351  and  _352
REMARK  151  A    between atoms: _354  and  _356
REMARK  152  A    between atoms: _356  and  _357
REMARK  153  A    between atoms: _356  and  _359
REMARK  154  A    between atoms: _362  and  _364
REMARK  155  A    between atoms: _364  and  _365
REMARK  156  A    between atoms: _364  and  _367
REMARK  157  A    between atoms: _367  and  _368
REMARK  158  A    between atoms: _371  and  _373
REMARK  159  A    between atoms: _373  and  _374
REMARK  160  A    between atoms: _373  and  _376
REMARK  161  A    between atoms: _379  and  _381
REMARK  162  A    between atoms: _381  and  _382
REMARK  163  A    between atoms: _381  and  _384
REMARK  164  A    between atoms: _384  and  _385
REMARK  165  A    between atoms: _388  and  _390
REMARK  166  A    between atoms: _390  and  _391
REMARK  167  A    between atoms: _390  and  _393
REMARK  168  A    between atoms: _393  and  _394
REMARK  169  A    between atoms: _397  and  _399
REMARK  170  A    between atoms: _399  and  _400
REMARK  171  A    between atoms: _399  and  _402
REMARK  172  A    between atoms: _402  and  _403
REMARK  173  A    between atoms: _403  and  _404
REMARK  174  A    between atoms: _404  and  _405
REMARK  175  A    between atoms: _405  and  _406
REMARK  176  A    between atoms: _410  and  _412
REMARK  177  A    between atoms: _412  and  _413
REMARK  178  A    between atoms: _416  and  _418
REMARK  179  A    between atoms: _418  and  _419
REMARK  180  A    between atoms: _418  and  _421
REMARK  181  A    between atoms: _421  and  _422
REMARK  182  A    between atoms: _432  and  _434
REMARK  183  A    between atoms: _434  and  _435
REMARK  184  A    between atoms: _434  and  _437
REMARK  185  A    between atoms: _437  and  _438
REMARK  186  A    between atoms: _438  and  _439
REMARK  187  A    between atoms: _442  and  _444
REMARK  188  A    between atoms: _444  and  _445
REMARK  189  A    between atoms: _444  and  _447
REMARK  190  A    between atoms: _447  and  _448
REMARK  191  A    between atoms: _450  and  _452
REMARK  192  A    between atoms: _452  and  _453
REMARK  193  A    between atoms: _452  and  _455
REMARK  194  A    between atoms: _455  and  _456
REMARK  195  A    between atoms: _462  and  _464
REMARK  196  A    between atoms: _464  and  _465
REMARK  197  A    between atoms: _464  and  _467
REMARK  198  A    between atoms: _467  and  _468
REMARK  199  A    between atoms: _471  and  _473
REMARK  200  A    between atoms: _473  and  _474
REMARK  201  A    between atoms: _473  and  _476
REMARK  202  A    between atoms: _479  and  _481
REMARK  203  A    between atoms: _481  and  _482
REMARK  204  A    between atoms: _484  and  _486
REMARK  205  A    between atoms: _486  and  _487
REMARK  206  A    between atoms: _486  and  _489
REMARK  207  A    between atoms: _489  and  _490
REMARK  208  A    between atoms: _493  and  _495
REMARK  209  A    between atoms: _495  and  _496
REMARK  210  A    between atoms: _495  and  _498
REMARK  211  A    between atoms: _498  and  _499
REMARK  212  A    between atoms: _499  and  _500
REMARK  213  A    between atoms: _500  and  _501
REMARK  214  A    between atoms: _501  and  _502
REMARK  215  A    between atoms: _506  and  _508
REMARK  216  A    between atoms: _508  and  _509
REMARK  217  A    between atoms: _508  and  _511
REMARK  218  A    between atoms: _514  and  _516
REMARK  219  A    between atoms: _516  and  _517
REMARK  220  A    between atoms: _516  and  _519
REMARK  221  A    between atoms: _519  and  _520
REMARK                            x       y       z     vdW  Elec       q    Type
REMARK                         _______ _______ _______ _____ _____    ______ ____
ROOT
ATOM      1  O   HOH     1      -4.397  14.755  22.953  0.00  0.00    +0.000 OA
ENDROOT
TORSDOF 0
REMARK  Name = ../refined-set-2016/4bqg/4bqg_pocket.pdb
REMARK  221 active torsions:
REMARK  status: ('A' for Active; 'I' for Inactive)
REMARK    1  A    between atoms: _1  and  _3
REMARK    2  A    between atoms: _3  and  _4
REMARK    3  A    between atoms: _3  and  _6
REMARK    4  A    between atoms: _6  and  _7
REMARK    5  A    between atoms: _13  and  _15
REMARK    6  A    between atoms: _15  and  _16
REMARK    7  A    between atoms: _15  and  _18
REMARK    8  A    between atoms: _18  and  _19
REMARK    9  A    between atoms: _22  and  _24
REMARK   10  A    between atoms: _24  and  _25
REMARK   11  A    between atoms: _24  and  _27
REMARK   12  A    between atoms: _27  and  _28
REMARK   13  A    between atoms: _28  and  _29
REMARK   14  A    between atoms: _31  and  _33
REMARK   15  A    between atoms: _33  and  _34
REMARK   16  A    between atoms: _33  and  _36
REMARK   17  A    between atoms: _36  and  _37
REMARK   18  A    between atoms: _43  and  _45
REMARK   19  A    between atoms: _45  and  _46
REMARK   20  A    between atoms: _45  and  _48
REMARK   21  A    between atoms: _48  and  _49
REMARK   22  A    between atoms: _52  and  _54
REMARK   23  A    between atoms: _54  and  _55
REMARK   24  A    between atoms: _54  and  _57
REMARK   25  A    between atoms: _57  and  _58
REMARK   26  A    between atoms: _58  and  _59
REMARK   27  A    between atoms: _62  and  _64
REMARK   28  A    between atoms: _64  and  _65
REMARK   29  A    between atoms: _64  and  _67
REMARK   30  A    between atoms: _67  and  _68
REMARK   31  A    between atoms: _71  and  _73
REMARK   32  A    between atoms: _73  and  _74
REMARK   33  A    between atoms: _73  and  _76
REMARK   34  A    between atoms: _76  and  _77
REMARK   35  A    between atoms: _80  and  _82
REMARK   36  A    between atoms: _82  and  _83
REMARK   37  A    between atoms: _82  and  _85
REMARK   38  A    between atoms: _85  and  _86
REMARK   39  A    between atoms: _88  and  _90
REMARK   40  A    between atoms: _90  and  _91
REMARK   41  A    between atoms: _90  and  _93
REMARK   42  A    between atoms: _93  and  _94
REMARK   43  A    between atoms: _99  and  _101
REMARK   44  A    between atoms: _101  and  _102
REMARK   45  A    between atoms: _101  and  _104
REMARK   46  A    between atoms: _104  and  _105
REMARK   47  A    between atoms: _107  and  _109
REMARK   48  A    between atoms: _109  and  _110
REMARK   49  A    between atoms: _109  and  _112
REMARK   50  A    between atoms: _112  and  _113
REMARK   51  A    between atoms: _115  and  _117
REMARK   52  A    between atoms: _117  and  _118
REMARK   53  A    between atoms: _117  and  _120
REMARK   54  A    between atoms: _120  and  _121
REMARK   55  A    between atoms: _124  and  _126
REMARK   56  A    between atoms: _126  and  _127
REMARK   57  A    between atoms: _130  and  _132
REMARK   58  A    between atoms: _132  and  _133
REMARK   59  A    between atoms: _132  and  _135
REMARK   60  A    between atoms: _135  and  _136
REMARK   61  A    between atoms: _139  and  _141
REMARK   62  A    between atoms: _141  and  _142
REMARK   63  A    between atoms: _141  and  _144
REMARK   64  A    between atoms: _144  and  _145
REMARK   65  A    between atoms: _145  and  _146
REMARK   66  A    between atoms: _146  and  _147
REMARK   67  A    between atoms: _147  and  _148
REMARK   68  A    between atoms: _152  and  _154
REMARK   69  A    between atoms: _154  and  _155
REMARK   70  A    between atoms: _154  and  _157
REMARK   71  A    between atoms: _157  and  _158
REMARK   72  A    between atoms: _161  and  _163
REMARK   73  A    between atoms: _163  and  _164
REMARK   74  A    between atoms: _163  and  _166
REMARK   75  A    between atoms: _169  and  _171
REMARK   76  A    between atoms: _171  and  _172
REMARK   77  A    between atoms: _171  and  _174
REMARK   78  A    between atoms: _174  and  _175
REMARK   79  A    between atoms: _178  and  _180
REMARK   80  A    between atoms: _180  and  _181
REMARK   81  A    between atoms: _180  and  _183
REMARK   82  A    between atoms: _183  and  _184
REMARK   83  A    between atoms: _187  and  _189
REMARK   84  A    between atoms: _189  and  _190
REMARK   85  A    between atoms: _192  and  _194
REMARK   86  A    between atoms: _194  and  _195
REMARK   87  A    between atoms: _194  and  _197
REMARK   88  A    between atoms: _197  and  _198
REMARK   89  A    between atoms: _201  and  _203
REMARK   90  A    between atoms: _203  and  _204
REMARK   91  A    between atoms: _206  and  _208
REMARK   92  A    between atoms: _208  and  _209
REMARK   93  A    between atoms: _208  and  _211
REMARK   94  A    between atoms: _211  and  _212
REMARK   95  A    between atoms: _212  and  _213
REMARK   96  A    between atoms: _215  and  _217
REMARK   97  A    between atoms: _217  and  _218
REMARK   98  A    between atoms: _217  and  _220
REMARK   99  A    between atoms: _220  and  _221
REMARK  100  A    between atoms: _224  and  _226
REMARK  101  A    between atoms: _226  and  _227
REMARK  102  A    between atoms: _226  and  _229
REMARK  103  A    between atoms: _229  and  _230
REMARK  104  A    between atoms: _233  and  _235
REMARK  105  A    between atoms: _235  and  _236
REMARK  106  A    between atoms: _235  and  _238
REMARK  107  A    between atoms: _238  and  _239
REMARK  108  A    between atoms: _242  and  _244
REMARK  109  A    between atoms: _244  and  _245
REMARK  110  A    between atoms: _244  and  _247
REMARK  111  A    between atoms: _247  and  _248
REMARK  112  A    between atoms: _253  and  _255
REMARK  113  A    between atoms: _255  and  _256
REMARK  114  A    between atoms: _255  and  _258
REMARK  115  A    between atoms: _258  and  _259
REMARK  116  A    between atoms: _262  and  _264
REMARK  117  A    between atoms: _264  and  _265
REMARK  118  A    between atoms: _267  and  _269
REMARK  119  A    between atoms: _269  and  _270
REMARK  120  A    between atoms: _269  and  _272
REMARK  121  A    between atoms: _272  and  _273
REMARK  122  A    between atoms: _276  and  _278
REMARK  123  A    between atoms: _278  and  _279
REMARK  124  A    between atoms: _282  and  _284
REMARK  125  A    between atoms: _284  and  _285
REMARK  126  A    between atoms: _287  and  _289
REMARK  127  A    between atoms: _289  and  _290
REMARK  128  A    between atoms: _289  and  _292
REMARK  129  A    between atoms: _295  and  _297
REMARK  130  A    between atoms: _297  and  _298
REMARK  131  A    between atoms: _300  and  _302
REMARK  132  A    between atoms: _302  and  _303
REMARK  133  A    between atoms: _302  and  _305
REMARK  134  A    between atoms: _305  and  _306
REMARK  135  A    between atoms: _312  and  _314
REMARK  136  A    between atoms: _314  and  _315
REMARK  137  A    between atoms: _314  and  _317
REMARK  138  A    between atoms: _317  and  _318
REMARK  139  A    between atoms: _323  and  _324
REMARK  140  A    between atoms: _326  and  _328
REMARK  141  A    between atoms: _328  and  _329
REMARK  142  A    between atoms: _328  and  _331
REMARK  143  A    between atoms: _331  and  _332
REMARK  144  A    between atoms: _334  and  _336
REMARK  145  A    between atoms: _336  and  _337
REMARK  146  A    between atoms: _340  and  _342
REMARK  147  A    between atoms: _342  and  _343
REMARK  148  A    between atoms: _342  and  _345
REMARK  149  A    between atoms: _345  and  _346
REMARK  150  A    between atoms: _351  and  _352
REMARK  151  A    between atoms: _354  and  _356
REMARK  152  A    between atoms: _356  and  _357
REMARK  153  A    between atoms: _356  and  _359
REMARK  154  A    between atoms: _362  and  _364
REMARK  155  A    between atoms: _364  and  _365
REMARK  156  A    between atoms: _364  and  _367
REMARK  157  A    between atoms: _367  and  _368
REMARK  158  A    between atoms: _371  and  _373
REMARK  159  A    between atoms: _373  and  _374
REMARK  160  A    between atoms: _373  and  _376
REMARK  161  A    between atoms: _379  and  _381
REMARK  162  A    between atoms: _381  and  _382
REMARK  163  A    between atoms: _381  and  _384
REMARK  164  A    between atoms: _384  and  _385
REMARK  165  A    between atoms: _388  and  _390
REMARK  166  A    between atoms: _390  and  _391
REMARK  167  A    between atoms: _390  and  _393
REMARK  168  A    between atoms: _393  and  _394
REMARK  169  A    between atoms: _397  and  _399
REMARK  170  A    between atoms: _399  and  _400
REMARK  171  A    between atoms: _399  and  _402
REMARK  172  A    between atoms: _402  and  _403
REMARK  173  A    between atoms: _403  and  _404
REMARK  174  A    between atoms: _404  and  _405
REMARK  175  A    between atoms: _405  and  _406
REMARK  176  A    between atoms: _410  and  _412
REMARK  177  A    between atoms: _412  and  _413
REMARK  178  A    between atoms: _416  and  _418
REMARK  179  A    between atoms: _418  and  _419
REMARK  180  A    between atoms: _418  and  _421
REMARK  181  A    between atoms: _421  and  _422
REMARK  182  A    between atoms: _432  and  _434
REMARK  183  A    between atoms: _434  and  _435
REMARK  184  A    between atoms: _434  and  _437
REMARK  185  A    between atoms: _437  and  _438
REMARK  186  A    between atoms: _438  and  _439
REMARK  187  A    between atoms: _442  and  _444
REMARK  188  A    between atoms: _444  and  _445
REMARK  189  A    between atoms: _444  and  _447
REMARK  190  A    between atoms: _447  and  _448
REMARK  191  A    between atoms: _450  and  _452
REMARK  192  A    between atoms: _452  and  _453
REMARK  193  A    between atoms: _452  and  _455
REMARK  194  A    between atoms: _455  and  _456
REMARK  195  A    between atoms: _462  and  _464
REMARK  196  A    between atoms: _464  and  _465
REMARK  197  A    between atoms: _464  and  _467
REMARK  198  A    between atoms: _467  and  _468
REMARK  199  A    between atoms: _471  and  _473
REMARK  200  A    between atoms: _473  and  _474
REMARK  201  A    between atoms: _473  and  _476
REMARK  202  A    between atoms: _479  and  _481
REMARK  203  A    between atoms: _481  and  _482
REMARK  204  A    between atoms: _484  and  _486
REMARK  205  A    between atoms: _486  and  _487
REMARK  206  A    between atoms: _486  and  _489
REMARK  207  A    between atoms: _489  and  _490
REMARK  208  A    between atoms: _493  and  _495
REMARK  209  A    between atoms: _495  and  _496
REMARK  210  A    between atoms: _495  and  _498
REMARK  211  A    between atoms: _498  and  _499
REMARK  212  A    between atoms: _499  and  _500
REMARK  213  A    between atoms: _500  and  _501
REMARK  214  A    between atoms: _501  and  _502
REMARK  215  A    between atoms: _506  and  _508
REMARK  216  A    between atoms: _508  and  _509
REMARK  217  A    between atoms: _508  and  _511
REMARK  218  A    between atoms: _514  and  _516
REMARK  219  A    between atoms: _516  and  _517
REMARK  220  A    between atoms: _516  and  _519
REMARK  221  A    between atoms: _519  and  _520
REMARK                            x       y       z     vdW  Elec       q    Type
REMARK                         _______ _______ _______ _____ _____    ______ ____
ROOT
ATOM      1  O   HOH     1      -0.268   7.235  26.832  0.00  0.00    +0.000 OA
ENDROOT
TORSDOF 0
REMARK  Name = ../refined-set-2016/4bqg/4bqg_pocket.pdb
REMARK  221 active torsions:
REMARK  status: ('A' for Active; 'I' for Inactive)
REMARK    1  A    between atoms: _1  and  _3
REMARK    2  A    between atoms: _3  and  _4
REMARK    3  A    between atoms: _3  and  _6
REMARK    4  A    between atoms: _6  and  _7
REMARK    5  A    between atoms: _13  and  _15
REMARK    6  A    between atoms: _15  and  _16
REMARK    7  A    between atoms: _15  and  _18
REMARK    8  A    between atoms: _18  and  _19
REMARK    9  A    between atoms: _22  and  _24
REMARK   10  A    between atoms: _24  and  _25
REMARK   11  A    between atoms: _24  and  _27
REMARK   12  A    between atoms: _27  and  _28
REMARK   13  A    between atoms: _28  and  _29
REMARK   14  A    between atoms: _31  and  _33
REMARK   15  A    between atoms: _33  and  _34
REMARK   16  A    between atoms: _33  and  _36
REMARK   17  A    between atoms: _36  and  _37
REMARK   18  A    between atoms: _43  and  _45
REMARK   19  A    between atoms: _45  and  _46
REMARK   20  A    between atoms: _45  and  _48
REMARK   21  A    between atoms: _48  and  _49
REMARK   22  A    between atoms: _52  and  _54
REMARK   23  A    between atoms: _54  and  _55
REMARK   24  A    between atoms: _54  and  _57
REMARK   25  A    between atoms: _57  and  _58
REMARK   26  A    between atoms: _58  and  _59
REMARK   27  A    between atoms: _62  and  _64
REMARK   28  A    between atoms: _64  and  _65
REMARK   29  A    between atoms: _64  and  _67
REMARK   30  A    between atoms: _67  and  _68
REMARK   31  A    between atoms: _71  and  _73
REMARK   32  A    between atoms: _73  and  _74
REMARK   33  A    between atoms: _73  and  _76
REMARK   34  A    between atoms: _76  and  _77
REMARK   35  A    between atoms: _80  and  _82
REMARK   36  A    between atoms: _82  and  _83
REMARK   37  A    between atoms: _82  and  _85
REMARK   38  A    between atoms: _85  and  _86
REMARK   39  A    between atoms: _88  and  _90
REMARK   40  A    between atoms: _90  and  _91
REMARK   41  A    between atoms: _90  and  _93
REMARK   42  A    between atoms: _93  and  _94
REMARK   43  A    between atoms: _99  and  _101
REMARK   44  A    between atoms: _101  and  _102
REMARK   45  A    between atoms: _101  and  _104
REMARK   46  A    between atoms: _104  and  _105
REMARK   47  A    between atoms: _107  and  _109
REMARK   48  A    between atoms: _109  and  _110
REMARK   49  A    between atoms: _109  and  _112
REMARK   50  A    between atoms: _112  and  _113
REMARK   51  A    between atoms: _115  and  _117
REMARK   52  A    between atoms: _117  and  _118
REMARK   53  A    between atoms: _117  and  _120
REMARK   54  A    between atoms: _120  and  _121
REMARK   55  A    between atoms: _124  and  _126
REMARK   56  A    between atoms: _126  and  _127
REMARK   57  A    between atoms: _130  and  _132
REMARK   58  A    between atoms: _132  and  _133
REMARK   59  A    between atoms: _132  and  _135
REMARK   60  A    between atoms: _135  and  _136
REMARK   61  A    between atoms: _139  and  _141
REMARK   62  A    between atoms: _141  and  _142
REMARK   63  A    between atoms: _141  and  _144
REMARK   64  A    between atoms: _144  and  _145
REMARK   65  A    between atoms: _145  and  _146
REMARK   66  A    between atoms: _146  and  _147
REMARK   67  A    between atoms: _147  and  _148
REMARK   68  A    between atoms: _152  and  _154
REMARK   69  A    between atoms: _154  and  _155
REMARK   70  A    between atoms: _154  and  _157
REMARK   71  A    between atoms: _157  and  _158
REMARK   72  A    between atoms: _161  and  _163
REMARK   73  A    between atoms: _163  and  _164
REMARK   74  A    between atoms: _163  and  _166
REMARK   75  A    between atoms: _169  and  _171
REMARK   76  A    between atoms: _171  and  _172
REMARK   77  A    between atoms: _171  and  _174
REMARK   78  A    between atoms: _174  and  _175
REMARK   79  A    between atoms: _178  and  _180
REMARK   80  A    between atoms: _180  and  _181
REMARK   81  A    between atoms: _180  and  _183
REMARK   82  A    between atoms: _183  and  _184
REMARK   83  A    between atoms: _187  and  _189
REMARK   84  A    between atoms: _189  and  _190
REMARK   85  A    between atoms: _192  and  _194
REMARK   86  A    between atoms: _194  and  _195
REMARK   87  A    between atoms: _194  and  _197
REMARK   88  A    between atoms: _197  and  _198
REMARK   89  A    between atoms: _201  and  _203
REMARK   90  A    between atoms: _203  and  _204
REMARK   91  A    between atoms: _206  and  _208
REMARK   92  A    between atoms: _208  and  _209
REMARK   93  A    between atoms: _208  and  _211
REMARK   94  A    between atoms: _211  and  _212
REMARK   95  A    between atoms: _212  and  _213
REMARK   96  A    between atoms: _215  and  _217
REMARK   97  A    between atoms: _217  and  _218
REMARK   98  A    between atoms: _217  and  _220
REMARK   99  A    between atoms: _220  and  _221
REMARK  100  A    between atoms: _224  and  _226
REMARK  101  A    between atoms: _226  and  _227
REMARK  102  A    between atoms: _226  and  _229
REMARK  103  A    between atoms: _229  and  _230
REMARK  104  A    between atoms: _233  and  _235
REMARK  105  A    between atoms: _235  and  _236
REMARK  106  A    between atoms: _235  and  _238
REMARK  107  A    between atoms: _238  and  _239
REMARK  108  A    between atoms: _242  and  _244
REMARK  109  A    between atoms: _244  and  _245
REMARK  110  A    between atoms: _244  and  _247
REMARK  111  A    between atoms: _247  and  _248
REMARK  112  A    between atoms: _253  and  _255
REMARK  113  A    between atoms: _255  and  _256
REMARK  114  A    between atoms: _255  and  _258
REMARK  115  A    between atoms: _258  and  _259
REMARK  116  A    between atoms: _262  and  _264
REMARK  117  A    between atoms: _264  and  _265
REMARK  118  A    between atoms: _267  and  _269
REMARK  119  A    between atoms: _269  and  _270
REMARK  120  A    between atoms: _269  and  _272
REMARK  121  A    between atoms: _272  and  _273
REMARK  122  A    between atoms: _276  and  _278
REMARK  123  A    between atoms: _278  and  _279
REMARK  124  A    between atoms: _282  and  _284
REMARK  125  A    between atoms: _284  and  _285
REMARK  126  A    between atoms: _287  and  _289
REMARK  127  A    between atoms: _289  and  _290
REMARK  128  A    between atoms: _289  and  _292
REMARK  129  A    between atoms: _295  and  _297
REMARK  130  A    between atoms: _297  and  _298
REMARK  131  A    between atoms: _300  and  _302
REMARK  132  A    between atoms: _302  and  _303
REMARK  133  A    between atoms: _302  and  _305
REMARK  134  A    between atoms: _305  and  _306
REMARK  135  A    between atoms: _312  and  _314
REMARK  136  A    between atoms: _314  and  _315
REMARK  137  A    between atoms: _314  and  _317
REMARK  138  A    between atoms: _317  and  _318
REMARK  139  A    between atoms: _323  and  _324
REMARK  140  A    between atoms: _326  and  _328
REMARK  141  A    between atoms: _328  and  _329
REMARK  142  A    between atoms: _328  and  _331
REMARK  143  A    between atoms: _331  and  _332
REMARK  144  A    between atoms: _334  and  _336
REMARK  145  A    between atoms: _336  and  _337
REMARK  146  A    between atoms: _340  and  _342
REMARK  147  A    between atoms: _342  and  _343
REMARK  148  A    between atoms: _342  and  _345
REMARK  149  A    between atoms: _345  and  _346
REMARK  150  A    between atoms: _351  and  _352
REMARK  151  A    between atoms: _354  and  _356
REMARK  152  A    between atoms: _356  and  _357
REMARK  153  A    between atoms: _356  and  _359
REMARK  154  A    between atoms: _362  and  _364
REMARK  155  A    between atoms: _364  and  _365
REMARK  156  A    between atoms: _364  and  _367
REMARK  157  A    between atoms: _367  and  _368
REMARK  158  A    between atoms: _371  and  _373
REMARK  159  A    between atoms: _373  and  _374
REMARK  160  A    between atoms: _373  and  _376
REMARK  161  A    between atoms: _379  and  _381
REMARK  162  A    between atoms: _381  and  _382
REMARK  163  A    between atoms: _381  and  _384
REMARK  164  A    between atoms: _384  and  _385
REMARK  165  A    between atoms: _388  and  _390
REMARK  166  A    between atoms: _390  and  _391
REMARK  167  A    between atoms: _390  and  _393
REMARK  168  A    between atoms: _393  and  _394
REMARK  169  A    between atoms: _397  and  _399
REMARK  170  A    between atoms: _399  and  _400
REMARK  171  A    between atoms: _399  and  _402
REMARK  172  A    between atoms: _402  and  _403
REMARK  173  A    between atoms: _403  and  _404
REMARK  174  A    between atoms: _404  and  _405
REMARK  175  A    between atoms: _405  and  _406
REMARK  176  A    between atoms: _410  and  _412
REMARK  177  A    between atoms: _412  and  _413
REMARK  178  A    between atoms: _416  and  _418
REMARK  179  A    between atoms: _418  and  _419
REMARK  180  A    between atoms: _418  and  _421
REMARK  181  A    between atoms: _421  and  _422
REMARK  182  A    between atoms: _432  and  _434
REMARK  183  A    between atoms: _434  and  _435
REMARK  184  A    between atoms: _434  and  _437
REMARK  185  A    between atoms: _437  and  _438
REMARK  186  A    between atoms: _438  and  _439
REMARK  187  A    between atoms: _442  and  _444
REMARK  188  A    between atoms: _444  and  _445
REMARK  189  A    between atoms: _444  and  _447
REMARK  190  A    between atoms: _447  and  _448
REMARK  191  A    between atoms: _450  and  _452
REMARK  192  A    between atoms: _452  and  _453
REMARK  193  A    between atoms: _452  and  _455
REMARK  194  A    between atoms: _455  and  _456
REMARK  195  A    between atoms: _462  and  _464
REMARK  196  A    between atoms: _464  and  _465
REMARK  197  A    between atoms: _464  and  _467
REMARK  198  A    between atoms: _467  and  _468
REMARK  199  A    between atoms: _471  and  _473
REMARK  200  A    between atoms: _473  and  _474
REMARK  201  A    between atoms: _473  and  _476
REMARK  202  A    between atoms: _479  and  _481
REMARK  203  A    between atoms: _481  and  _482
REMARK  204  A    between atoms: _484  and  _486
REMARK  205  A    between atoms: _486  and  _487
REMARK  206  A    between atoms: _486  and  _489
REMARK  207  A    between atoms: _489  and  _490
REMARK  208  A    between atoms: _493  and  _495
REMARK  209  A    between atoms: _495  and  _496
REMARK  210  A    between atoms: _495  and  _498
REMARK  211  A    between atoms: _498  and  _499
REMARK  212  A    between atoms: _499  and  _500
REMARK  213  A    between atoms: _500  and  _501
REMARK  214  A    between atoms: _501  and  _502
REMARK  215  A    between atoms: _506  and  _508
REMARK  216  A    between atoms: _508  and  _509
REMARK  217  A    between atoms: _508  and  _511
REMARK  218  A    between atoms: _514  and  _516
REMARK  219  A    between atoms: _516  and  _517
REMARK  220  A    between atoms: _516  and  _519
REMARK  221  A    between atoms: _519  and  _520
REMARK                            x       y       z     vdW  Elec       q    Type
REMARK                         _______ _______ _______ _____ _____    ______ ____
ROOT
ATOM      1  O   HOH     1       1.836   3.438  23.978  0.00  0.00    +0.000 OA
ENDROOT
TORSDOF 0
REMARK  Name = ../refined-set-2016/4bqg/4bqg_pocket.pdb
REMARK  221 active torsions:
REMARK  status: ('A' for Active; 'I' for Inactive)
REMARK    1  A    between atoms: _1  and  _3
REMARK    2  A    between atoms: _3  and  _4
REMARK    3  A    between atoms: _3  and  _6
REMARK    4  A    between atoms: _6  and  _7
REMARK    5  A    between atoms: _13  and  _15
REMARK    6  A    between atoms: _15  and  _16
REMARK    7  A    between atoms: _15  and  _18
REMARK    8  A    between atoms: _18  and  _19
REMARK    9  A    between atoms: _22  and  _24
REMARK   10  A    between atoms: _24  and  _25
REMARK   11  A    between atoms: _24  and  _27
REMARK   12  A    between atoms: _27  and  _28
REMARK   13  A    between atoms: _28  and  _29
REMARK   14  A    between atoms: _31  and  _33
REMARK   15  A    between atoms: _33  and  _34
REMARK   16  A    between atoms: _33  and  _36
REMARK   17  A    between atoms: _36  and  _37
REMARK   18  A    between atoms: _43  and  _45
REMARK   19  A    between atoms: _45  and  _46
REMARK   20  A    between atoms: _45  and  _48
REMARK   21  A    between atoms: _48  and  _49
REMARK   22  A    between atoms: _52  and  _54
REMARK   23  A    between atoms: _54  and  _55
REMARK   24  A    between atoms: _54  and  _57
REMARK   25  A    between atoms: _57  and  _58
REMARK   26  A    between atoms: _58  and  _59
REMARK   27  A    between atoms: _62  and  _64
REMARK   28  A    between atoms: _64  and  _65
REMARK   29  A    between atoms: _64  and  _67
REMARK   30  A    between atoms: _67  and  _68
REMARK   31  A    between atoms: _71  and  _73
REMARK   32  A    between atoms: _73  and  _74
REMARK   33  A    between atoms: _73  and  _76
REMARK   34  A    between atoms: _76  and  _77
REMARK   35  A    between atoms: _80  and  _82
REMARK   36  A    between atoms: _82  and  _83
REMARK   37  A    between atoms: _82  and  _85
REMARK   38  A    between atoms: _85  and  _86
REMARK   39  A    between atoms: _88  and  _90
REMARK   40  A    between atoms: _90  and  _91
REMARK   41  A    between atoms: _90  and  _93
REMARK   42  A    between atoms: _93  and  _94
REMARK   43  A    between atoms: _99  and  _101
REMARK   44  A    between atoms: _101  and  _102
REMARK   45  A    between atoms: _101  and  _104
REMARK   46  A    between atoms: _104  and  _105
REMARK   47  A    between atoms: _107  and  _109
REMARK   48  A    between atoms: _109  and  _110
REMARK   49  A    between atoms: _109  and  _112
REMARK   50  A    between atoms: _112  and  _113
REMARK   51  A    between atoms: _115  and  _117
REMARK   52  A    between atoms: _117  and  _118
REMARK   53  A    between atoms: _117  and  _120
REMARK   54  A    between atoms: _120  and  _121
REMARK   55  A    between atoms: _124  and  _126
REMARK   56  A    between atoms: _126  and  _127
REMARK   57  A    between atoms: _130  and  _132
REMARK   58  A    between atoms: _132  and  _133
REMARK   59  A    between atoms: _132  and  _135
REMARK   60  A    between atoms: _135  and  _136
REMARK   61  A    between atoms: _139  and  _141
REMARK   62  A    between atoms: _141  and  _142
REMARK   63  A    between atoms: _141  and  _144
REMARK   64  A    between atoms: _144  and  _145
REMARK   65  A    between atoms: _145  and  _146
REMARK   66  A    between atoms: _146  and  _147
REMARK   67  A    between atoms: _147  and  _148
REMARK   68  A    between atoms: _152  and  _154
REMARK   69  A    between atoms: _154  and  _155
REMARK   70  A    between atoms: _154  and  _157
REMARK   71  A    between atoms: _157  and  _158
REMARK   72  A    between atoms: _161  and  _163
REMARK   73  A    between atoms: _163  and  _164
REMARK   74  A    between atoms: _163  and  _166
REMARK   75  A    between atoms: _169  and  _171
REMARK   76  A    between atoms: _171  and  _172
REMARK   77  A    between atoms: _171  and  _174
REMARK   78  A    between atoms: _174  and  _175
REMARK   79  A    between atoms: _178  and  _180
REMARK   80  A    between atoms: _180  and  _181
REMARK   81  A    between atoms: _180  and  _183
REMARK   82  A    between atoms: _183  and  _184
REMARK   83  A    between atoms: _187  and  _189
REMARK   84  A    between atoms: _189  and  _190
REMARK   85  A    between atoms: _192  and  _194
REMARK   86  A    between atoms: _194  and  _195
REMARK   87  A    between atoms: _194  and  _197
REMARK   88  A    between atoms: _197  and  _198
REMARK   89  A    between atoms: _201  and  _203
REMARK   90  A    between atoms: _203  and  _204
REMARK   91  A    between atoms: _206  and  _208
REMARK   92  A    between atoms: _208  and  _209
REMARK   93  A    between atoms: _208  and  _211
REMARK   94  A    between atoms: _211  and  _212
REMARK   95  A    between atoms: _212  and  _213
REMARK   96  A    between atoms: _215  and  _217
REMARK   97  A    between atoms: _217  and  _218
REMARK   98  A    between atoms: _217  and  _220
REMARK   99  A    between atoms: _220  and  _221
REMARK  100  A    between atoms: _224  and  _226
REMARK  101  A    between atoms: _226  and  _227
REMARK  102  A    between atoms: _226  and  _229
REMARK  103  A    between atoms: _229  and  _230
REMARK  104  A    between atoms: _233  and  _235
REMARK  105  A    between atoms: _235  and  _236
REMARK  106  A    between atoms: _235  and  _238
REMARK  107  A    between atoms: _238  and  _239
REMARK  108  A    between atoms: _242  and  _244
REMARK  109  A    between atoms: _244  and  _245
REMARK  110  A    between atoms: _244  and  _247
REMARK  111  A    between atoms: _247  and  _248
REMARK  112  A    between atoms: _253  and  _255
REMARK  113  A    between atoms: _255  and  _256
REMARK  114  A    between atoms: _255  and  _258
REMARK  115  A    between atoms: _258  and  _259
REMARK  116  A    between atoms: _262  and  _264
REMARK  117  A    between atoms: _264  and  _265
REMARK  118  A    between atoms: _267  and  _269
REMARK  119  A    between atoms: _269  and  _270
REMARK  120  A    between atoms: _269  and  _272
REMARK  121  A    between atoms: _272  and  _273
REMARK  122  A    between atoms: _276  and  _278
REMARK  123  A    between atoms: _278  and  _279
REMARK  124  A    between atoms: _282  and  _284
REMARK  125  A    between atoms: _284  and  _285
REMARK  126  A    between atoms: _287  and  _289
REMARK  127  A    between atoms: _289  and  _290
REMARK  128  A    between atoms: _289  and  _292
REMARK  129  A    between atoms: _295  and  _297
REMARK  130  A    between atoms: _297  and  _298
REMARK  131  A    between atoms: _300  and  _302
REMARK  132  A    between atoms: _302  and  _303
REMARK  133  A    between atoms: _302  and  _305
REMARK  134  A    between atoms: _305  and  _306
REMARK  135  A    between atoms: _312  and  _314
REMARK  136  A    between atoms: _314  and  _315
REMARK  137  A    between atoms: _314  and  _317
REMARK  138  A    between atoms: _317  and  _318
REMARK  139  A    between atoms: _323  and  _324
REMARK  140  A    between atoms: _326  and  _328
REMARK  141  A    between atoms: _328  and  _329
REMARK  142  A    between atoms: _328  and  _331
REMARK  143  A    between atoms: _331  and  _332
REMARK  144  A    between atoms: _334  and  _336
REMARK  145  A    between atoms: _336  and  _337
REMARK  146  A    between atoms: _340  and  _342
REMARK  147  A    between atoms: _342  and  _343
REMARK  148  A    between atoms: _342  and  _345
REMARK  149  A    between atoms: _345  and  _346
REMARK  150  A    between atoms: _351  and  _352
REMARK  151  A    between atoms: _354  and  _356
REMARK  152  A    between atoms: _356  and  _357
REMARK  153  A    between atoms: _356  and  _359
REMARK  154  A    between atoms: _362  and  _364
REMARK  155  A    between atoms: _364  and  _365
REMARK  156  A    between atoms: _364  and  _367
REMARK  157  A    between atoms: _367  and  _368
REMARK  158  A    between atoms: _371  and  _373
REMARK  159  A    between atoms: _373  and  _374
REMARK  160  A    between atoms: _373  and  _376
REMARK  161  A    between atoms: _379  and  _381
REMARK  162  A    between atoms: _381  and  _382
REMARK  163  A    between atoms: _381  and  _384
REMARK  164  A    between atoms: _384  and  _385
REMARK  165  A    between atoms: _388  and  _390
REMARK  166  A    between atoms: _390  and  _391
REMARK  167  A    between atoms: _390  and  _393
REMARK  168  A    between atoms: _393  and  _394
REMARK  169  A    between atoms: _397  and  _399
REMARK  170  A    between atoms: _399  and  _400
REMARK  171  A    between atoms: _399  and  _402
REMARK  172  A    between atoms: _402  and  _403
REMARK  173  A    between atoms: _403  and  _404
REMARK  174  A    between atoms: _404  and  _405
REMARK  175  A    between atoms: _405  and  _406
REMARK  176  A    between atoms: _410  and  _412
REMARK  177  A    between atoms: _412  and  _413
REMARK  178  A    between atoms: _416  and  _418
REMARK  179  A    between atoms: _418  and  _419
REMARK  180  A    between atoms: _418  and  _421
REMARK  181  A    between atoms: _421  and  _422
REMARK  182  A    between atoms: _432  and  _434
REMARK  183  A    between atoms: _434  and  _435
REMARK  184  A    between atoms: _434  and  _437
REMARK  185  A    between atoms: _437  and  _438
REMARK  186  A    between atoms: _438  and  _439
REMARK  187  A    between atoms: _442  and  _444
REMARK  188  A    between atoms: _444  and  _445
REMARK  189  A    between atoms: _444  and  _447
REMARK  190  A    between atoms: _447  and  _448
REMARK  191  A    between atoms: _450  and  _452
REMARK  192  A    between atoms: _452  and  _453
REMARK  193  A    between atoms: _452  and  _455
REMARK  194  A    between atoms: _455  and  _456
REMARK  195  A    between atoms: _462  and  _464
REMARK  196  A    between atoms: _464  and  _465
REMARK  197  A    between atoms: _464  and  _467
REMARK  198  A    between atoms: _467  and  _468
REMARK  199  A    between atoms: _471  and  _473
REMARK  200  A    between atoms: _473  and  _474
REMARK  201  A    between atoms: _473  and  _476
REMARK  202  A    between atoms: _479  and  _481
REMARK  203  A    between atoms: _481  and  _482
REMARK  204  A    between atoms: _484  and  _486
REMARK  205  A    between atoms: _486  and  _487
REMARK  206  A    between atoms: _486  and  _489
REMARK  207  A    between atoms: _489  and  _490
REMARK  208  A    between atoms: _493  and  _495
REMARK  209  A    between atoms: _495  and  _496
REMARK  210  A    between atoms: _495  and  _498
REMARK  211  A    between atoms: _498  and  _499
REMARK  212  A    between atoms: _499  and  _500
REMARK  213  A    between atoms: _500  and  _501
REMARK  214  A    between atoms: _501  and  _502
REMARK  215  A    between atoms: _506  and  _508
REMARK  216  A    between atoms: _508  and  _509
REMARK  217  A    between atoms: _508  and  _511
REMARK  218  A    between atoms: _514  and  _516
REMARK  219  A    between atoms: _516  and  _517
REMARK  220  A    between atoms: _516  and  _519
REMARK  221  A    between atoms: _519  and  _520
REMARK                            x       y       z     vdW  Elec       q    Type
REMARK                         _______ _______ _______ _____ _____    ______ ____
ROOT
ATOM      1  O   HOH     1       1.392   6.727  28.778  0.00  0.00    +0.000 OA
ENDROOT
TORSDOF 0
REMARK  Name = ../refined-set-2016/4bqg/4bqg_pocket.pdb
REMARK  221 active torsions:
REMARK  status: ('A' for Active; 'I' for Inactive)
REMARK    1  A    between atoms: _1  and  _3
REMARK    2  A    between atoms: _3  and  _4
REMARK    3  A    between atoms: _3  and  _6
REMARK    4  A    between atoms: _6  and  _7
REMARK    5  A    between atoms: _13  and  _15
REMARK    6  A    between atoms: _15  and  _16
REMARK    7  A    between atoms: _15  and  _18
REMARK    8  A    between atoms: _18  and  _19
REMARK    9  A    between atoms: _22  and  _24
REMARK   10  A    between atoms: _24  and  _25
REMARK   11  A    between atoms: _24  and  _27
REMARK   12  A    between atoms: _27  and  _28
REMARK   13  A    between atoms: _28  and  _29
REMARK   14  A    between atoms: _31  and  _33
REMARK   15  A    between atoms: _33  and  _34
REMARK   16  A    between atoms: _33  and  _36
REMARK   17  A    between atoms: _36  and  _37
REMARK   18  A    between atoms: _43  and  _45
REMARK   19  A    between atoms: _45  and  _46
REMARK   20  A    between atoms: _45  and  _48
REMARK   21  A    between atoms: _48  and  _49
REMARK   22  A    between atoms: _52  and  _54
REMARK   23  A    between atoms: _54  and  _55
REMARK   24  A    between atoms: _54  and  _57
REMARK   25  A    between atoms: _57  and  _58
REMARK   26  A    between atoms: _58  and  _59
REMARK   27  A    between atoms: _62  and  _64
REMARK   28  A    between atoms: _64  and  _65
REMARK   29  A    between atoms: _64  and  _67
REMARK   30  A    between atoms: _67  and  _68
REMARK   31  A    between atoms: _71  and  _73
REMARK   32  A    between atoms: _73  and  _74
REMARK   33  A    between atoms: _73  and  _76
REMARK   34  A    between atoms: _76  and  _77
REMARK   35  A    between atoms: _80  and  _82
REMARK   36  A    between atoms: _82  and  _83
REMARK   37  A    between atoms: _82  and  _85
REMARK   38  A    between atoms: _85  and  _86
REMARK   39  A    between atoms: _88  and  _90
REMARK   40  A    between atoms: _90  and  _91
REMARK   41  A    between atoms: _90  and  _93
REMARK   42  A    between atoms: _93  and  _94
REMARK   43  A    between atoms: _99  and  _101
REMARK   44  A    between atoms: _101  and  _102
REMARK   45  A    between atoms: _101  and  _104
REMARK   46  A    between atoms: _104  and  _105
REMARK   47  A    between atoms: _107  and  _109
REMARK   48  A    between atoms: _109  and  _110
REMARK   49  A    between atoms: _109  and  _112
REMARK   50  A    between atoms: _112  and  _113
REMARK   51  A    between atoms: _115  and  _117
REMARK   52  A    between atoms: _117  and  _118
REMARK   53  A    between atoms: _117  and  _120
REMARK   54  A    between atoms: _120  and  _121
REMARK   55  A    between atoms: _124  and  _126
REMARK   56  A    between atoms: _126  and  _127
REMARK   57  A    between atoms: _130  and  _132
REMARK   58  A    between atoms: _132  and  _133
REMARK   59  A    between atoms: _132  and  _135
REMARK   60  A    between atoms: _135  and  _136
REMARK   61  A    between atoms: _139  and  _141
REMARK   62  A    between atoms: _141  and  _142
REMARK   63  A    between atoms: _141  and  _144
REMARK   64  A    between atoms: _144  and  _145
REMARK   65  A    between atoms: _145  and  _146
REMARK   66  A    between atoms: _146  and  _147
REMARK   67  A    between atoms: _147  and  _148
REMARK   68  A    between atoms: _152  and  _154
REMARK   69  A    between atoms: _154  and  _155
REMARK   70  A    between atoms: _154  and  _157
REMARK   71  A    between atoms: _157  and  _158
REMARK   72  A    between atoms: _161  and  _163
REMARK   73  A    between atoms: _163  and  _164
REMARK   74  A    between atoms: _163  and  _166
REMARK   75  A    between atoms: _169  and  _171
REMARK   76  A    between atoms: _171  and  _172
REMARK   77  A    between atoms: _171  and  _174
REMARK   78  A    between atoms: _174  and  _175
REMARK   79  A    between atoms: _178  and  _180
REMARK   80  A    between atoms: _180  and  _181
REMARK   81  A    between atoms: _180  and  _183
REMARK   82  A    between atoms: _183  and  _184
REMARK   83  A    between atoms: _187  and  _189
REMARK   84  A    between atoms: _189  and  _190
REMARK   85  A    between atoms: _192  and  _194
REMARK   86  A    between atoms: _194  and  _195
REMARK   87  A    between atoms: _194  and  _197
REMARK   88  A    between atoms: _197  and  _198
REMARK   89  A    between atoms: _201  and  _203
REMARK   90  A    between atoms: _203  and  _204
REMARK   91  A    between atoms: _206  and  _208
REMARK   92  A    between atoms: _208  and  _209
REMARK   93  A    between atoms: _208  and  _211
REMARK   94  A    between atoms: _211  and  _212
REMARK   95  A    between atoms: _212  and  _213
REMARK   96  A    between atoms: _215  and  _217
REMARK   97  A    between atoms: _217  and  _218
REMARK   98  A    between atoms: _217  and  _220
REMARK   99  A    between atoms: _220  and  _221
REMARK  100  A    between atoms: _224  and  _226
REMARK  101  A    between atoms: _226  and  _227
REMARK  102  A    between atoms: _226  and  _229
REMARK  103  A    between atoms: _229  and  _230
REMARK  104  A    between atoms: _233  and  _235
REMARK  105  A    between atoms: _235  and  _236
REMARK  106  A    between atoms: _235  and  _238
REMARK  107  A    between atoms: _238  and  _239
REMARK  108  A    between atoms: _242  and  _244
REMARK  109  A    between atoms: _244  and  _245
REMARK  110  A    between atoms: _244  and  _247
REMARK  111  A    between atoms: _247  and  _248
REMARK  112  A    between atoms: _253  and  _255
REMARK  113  A    between atoms: _255  and  _256
REMARK  114  A    between atoms: _255  and  _258
REMARK  115  A    between atoms: _258  and  _259
REMARK  116  A    between atoms: _262  and  _264
REMARK  117  A    between atoms: _264  and  _265
REMARK  118  A    between atoms: _267  and  _269
REMARK  119  A    between atoms: _269  and  _270
REMARK  120  A    between atoms: _269  and  _272
REMARK  121  A    between atoms: _272  and  _273
REMARK  122  A    between atoms: _276  and  _278
REMARK  123  A    between atoms: _278  and  _279
REMARK  124  A    between atoms: _282  and  _284
REMARK  125  A    between atoms: _284  and  _285
REMARK  126  A    between atoms: _287  and  _289
REMARK  127  A    between atoms: _289  and  _290
REMARK  128  A    between atoms: _289  and  _292
REMARK  129  A    between atoms: _295  and  _297
REMARK  130  A    between atoms: _297  and  _298
REMARK  131  A    between atoms: _300  and  _302
REMARK  132  A    between atoms: _302  and  _303
REMARK  133  A    between atoms: _302  and  _305
REMARK  134  A    between atoms: _305  and  _306
REMARK  135  A    between atoms: _312  and  _314
REMARK  136  A    between atoms: _314  and  _315
REMARK  137  A    between atoms: _314  and  _317
REMARK  138  A    between atoms: _317  and  _318
REMARK  139  A    between atoms: _323  and  _324
REMARK  140  A    between atoms: _326  and  _328
REMARK  141  A    between atoms: _328  and  _329
REMARK  142  A    between atoms: _328  and  _331
REMARK  143  A    between atoms: _331  and  _332
REMARK  144  A    between atoms: _334  and  _336
REMARK  145  A    between atoms: _336  and  _337
REMARK  146  A    between atoms: _340  and  _342
REMARK  147  A    between atoms: _342  and  _343
REMARK  148  A    between atoms: _342  and  _345
REMARK  149  A    between atoms: _345  and  _346
REMARK  150  A    between atoms: _351  and  _352
REMARK  151  A    between atoms: _354  and  _356
REMARK  152  A    between atoms: _356  and  _357
REMARK  153  A    between atoms: _356  and  _359
REMARK  154  A    between atoms: _362  and  _364
REMARK  155  A    between atoms: _364  and  _365
REMARK  156  A    between atoms: _364  and  _367
REMARK  157  A    between atoms: _367  and  _368
REMARK  158  A    between atoms: _371  and  _373
REMARK  159  A    between atoms: _373  and  _374
REMARK  160  A    between atoms: _373  and  _376
REMARK  161  A    between atoms: _379  and  _381
REMARK  162  A    between atoms: _381  and  _382
REMARK  163  A    between atoms: _381  and  _384
REMARK  164  A    between atoms: _384  and  _385
REMARK  165  A    between atoms: _388  and  _390
REMARK  166  A    between atoms: _390  and  _391
REMARK  167  A    between atoms: _390  and  _393
REMARK  168  A    between atoms: _393  and  _394
REMARK  169  A    between atoms: _397  and  _399
REMARK  170  A    between atoms: _399  and  _400
REMARK  171  A    between atoms: _399  and  _402
REMARK  172  A    between atoms: _402  and  _403
REMARK  173  A    between atoms: _403  and  _404
REMARK  174  A    between atoms: _404  and  _405
REMARK  175  A    between atoms: _405  and  _406
REMARK  176  A    between atoms: _410  and  _412
REMARK  177  A    between atoms: _412  and  _413
REMARK  178  A    between atoms: _416  and  _418
REMARK  179  A    between atoms: _418  and  _419
REMARK  180  A    between atoms: _418  and  _421
REMARK  181  A    between atoms: _421  and  _422
REMARK  182  A    between atoms: _432  and  _434
REMARK  183  A    between atoms: _434  and  _435
REMARK  184  A    between atoms: _434  and  _437
REMARK  185  A    between atoms: _437  and  _438
REMARK  186  A    between atoms: _438  and  _439
REMARK  187  A    between atoms: _442  and  _444
REMARK  188  A    between atoms: _444  and  _445
REMARK  189  A    between atoms: _444  and  _447
REMARK  190  A    between atoms: _447  and  _448
REMARK  191  A    between atoms: _450  and  _452
REMARK  192  A    between atoms: _452  and  _453
REMARK  193  A    between atoms: _452  and  _455
REMARK  194  A    between atoms: _455  and  _456
REMARK  195  A    between atoms: _462  and  _464
REMARK  196  A    between atoms: _464  and  _465
REMARK  197  A    between atoms: _464  and  _467
REMARK  198  A    between atoms: _467  and  _468
REMARK  199  A    between atoms: _471  and  _473
REMARK  200  A    between atoms: _473  and  _474
REMARK  201  A    between atoms: _473  and  _476
REMARK  202  A    between atoms: _479  and  _481
REMARK  203  A    between atoms: _481  and  _482
REMARK  204  A    between atoms: _484  and  _486
REMARK  205  A    between atoms: _486  and  _487
REMARK  206  A    between atoms: _486  and  _489
REMARK  207  A    between atoms: _489  and  _490
REMARK  208  A    between atoms: _493  and  _495
REMARK  209  A    between atoms: _495  and  _496
REMARK  210  A    between atoms: _495  and  _498
REMARK  211  A    between atoms: _498  and  _499
REMARK  212  A    between atoms: _499  and  _500
REMARK  213  A    between atoms: _500  and  _501
REMARK  214  A    between atoms: _501  and  _502
REMARK  215  A    between atoms: _506  and  _508
REMARK  216  A    between atoms: _508  and  _509
REMARK  217  A    between atoms: _508  and  _511
REMARK  218  A    between atoms: _514  and  _516
REMARK  219  A    between atoms: _516  and  _517
REMARK  220  A    between atoms: _516  and  _519
REMARK  221  A    between atoms: _519  and  _520
REMARK                            x       y       z     vdW  Elec       q    Type
REMARK                         _______ _______ _______ _____ _____    ______ ____
ROOT
ATOM      1  O   HOH     1      -3.936  11.065  27.801  0.00  0.00    +0.000 OA
ENDROOT
TORSDOF 0
REMARK  Name = ../refined-set-2016/4bqg/4bqg_pocket.pdb
REMARK  221 active torsions:
REMARK  status: ('A' for Active; 'I' for Inactive)
REMARK    1  A    between atoms: _1  and  _3
REMARK    2  A    between atoms: _3  and  _4
REMARK    3  A    between atoms: _3  and  _6
REMARK    4  A    between atoms: _6  and  _7
REMARK    5  A    between atoms: _13  and  _15
REMARK    6  A    between atoms: _15  and  _16
REMARK    7  A    between atoms: _15  and  _18
REMARK    8  A    between atoms: _18  and  _19
REMARK    9  A    between atoms: _22  and  _24
REMARK   10  A    between atoms: _24  and  _25
REMARK   11  A    between atoms: _24  and  _27
REMARK   12  A    between atoms: _27  and  _28
REMARK   13  A    between atoms: _28  and  _29
REMARK   14  A    between atoms: _31  and  _33
REMARK   15  A    between atoms: _33  and  _34
REMARK   16  A    between atoms: _33  and  _36
REMARK   17  A    between atoms: _36  and  _37
REMARK   18  A    between atoms: _43  and  _45
REMARK   19  A    between atoms: _45  and  _46
REMARK   20  A    between atoms: _45  and  _48
REMARK   21  A    between atoms: _48  and  _49
REMARK   22  A    between atoms: _52  and  _54
REMARK   23  A    between atoms: _54  and  _55
REMARK   24  A    between atoms: _54  and  _57
REMARK   25  A    between atoms: _57  and  _58
REMARK   26  A    between atoms: _58  and  _59
REMARK   27  A    between atoms: _62  and  _64
REMARK   28  A    between atoms: _64  and  _65
REMARK   29  A    between atoms: _64  and  _67
REMARK   30  A    between atoms: _67  and  _68
REMARK   31  A    between atoms: _71  and  _73
REMARK   32  A    between atoms: _73  and  _74
REMARK   33  A    between atoms: _73  and  _76
REMARK   34  A    between atoms: _76  and  _77
REMARK   35  A    between atoms: _80  and  _82
REMARK   36  A    between atoms: _82  and  _83
REMARK   37  A    between atoms: _82  and  _85
REMARK   38  A    between atoms: _85  and  _86
REMARK   39  A    between atoms: _88  and  _90
REMARK   40  A    between atoms: _90  and  _91
REMARK   41  A    between atoms: _90  and  _93
REMARK   42  A    between atoms: _93  and  _94
REMARK   43  A    between atoms: _99  and  _101
REMARK   44  A    between atoms: _101  and  _102
REMARK   45  A    between atoms: _101  and  _104
REMARK   46  A    between atoms: _104  and  _105
REMARK   47  A    between atoms: _107  and  _109
REMARK   48  A    between atoms: _109  and  _110
REMARK   49  A    between atoms: _109  and  _112
REMARK   50  A    between atoms: _112  and  _113
REMARK   51  A    between atoms: _115  and  _117
REMARK   52  A    between atoms: _117  and  _118
REMARK   53  A    between atoms: _117  and  _120
REMARK   54  A    between atoms: _120  and  _121
REMARK   55  A    between atoms: _124  and  _126
REMARK   56  A    between atoms: _126  and  _127
REMARK   57  A    between atoms: _130  and  _132
REMARK   58  A    between atoms: _132  and  _133
REMARK   59  A    between atoms: _132  and  _135
REMARK   60  A    between atoms: _135  and  _136
REMARK   61  A    between atoms: _139  and  _141
REMARK   62  A    between atoms: _141  and  _142
REMARK   63  A    between atoms: _141  and  _144
REMARK   64  A    between atoms: _144  and  _145
REMARK   65  A    between atoms: _145  and  _146
REMARK   66  A    between atoms: _146  and  _147
REMARK   67  A    between atoms: _147  and  _148
REMARK   68  A    between atoms: _152  and  _154
REMARK   69  A    between atoms: _154  and  _155
REMARK   70  A    between atoms: _154  and  _157
REMARK   71  A    between atoms: _157  and  _158
REMARK   72  A    between atoms: _161  and  _163
REMARK   73  A    between atoms: _163  and  _164
REMARK   74  A    between atoms: _163  and  _166
REMARK   75  A    between atoms: _169  and  _171
REMARK   76  A    between atoms: _171  and  _172
REMARK   77  A    between atoms: _171  and  _174
REMARK   78  A    between atoms: _174  and  _175
REMARK   79  A    between atoms: _178  and  _180
REMARK   80  A    between atoms: _180  and  _181
REMARK   81  A    between atoms: _180  and  _183
REMARK   82  A    between atoms: _183  and  _184
REMARK   83  A    between atoms: _187  and  _189
REMARK   84  A    between atoms: _189  and  _190
REMARK   85  A    between atoms: _192  and  _194
REMARK   86  A    between atoms: _194  and  _195
REMARK   87  A    between atoms: _194  and  _197
REMARK   88  A    between atoms: _197  and  _198
REMARK   89  A    between atoms: _201  and  _203
REMARK   90  A    between atoms: _203  and  _204
REMARK   91  A    between atoms: _206  and  _208
REMARK   92  A    between atoms: _208  and  _209
REMARK   93  A    between atoms: _208  and  _211
REMARK   94  A    between atoms: _211  and  _212
REMARK   95  A    between atoms: _212  and  _213
REMARK   96  A    between atoms: _215  and  _217
REMARK   97  A    between atoms: _217  and  _218
REMARK   98  A    between atoms: _217  and  _220
REMARK   99  A    between atoms: _220  and  _221
REMARK  100  A    between atoms: _224  and  _226
REMARK  101  A    between atoms: _226  and  _227
REMARK  102  A    between atoms: _226  and  _229
REMARK  103  A    between atoms: _229  and  _230
REMARK  104  A    between atoms: _233  and  _235
REMARK  105  A    between atoms: _235  and  _236
REMARK  106  A    between atoms: _235  and  _238
REMARK  107  A    between atoms: _238  and  _239
REMARK  108  A    between atoms: _242  and  _244
REMARK  109  A    between atoms: _244  and  _245
REMARK  110  A    between atoms: _244  and  _247
REMARK  111  A    between atoms: _247  and  _248
REMARK  112  A    between atoms: _253  and  _255
REMARK  113  A    between atoms: _255  and  _256
REMARK  114  A    between atoms: _255  and  _258
REMARK  115  A    between atoms: _258  and  _259
REMARK  116  A    between atoms: _262  and  _264
REMARK  117  A    between atoms: _264  and  _265
REMARK  118  A    between atoms: _267  and  _269
REMARK  119  A    between atoms: _269  and  _270
REMARK  120  A    between atoms: _269  and  _272
REMARK  121  A    between atoms: _272  and  _273
REMARK  122  A    between atoms: _276  and  _278
REMARK  123  A    between atoms: _278  and  _279
REMARK  124  A    between atoms: _282  and  _284
REMARK  125  A    between atoms: _284  and  _285
REMARK  126  A    between atoms: _287  and  _289
REMARK  127  A    between atoms: _289  and  _290
REMARK  128  A    between atoms: _289  and  _292
REMARK  129  A    between atoms: _295  and  _297
REMARK  130  A    between atoms: _297  and  _298
REMARK  131  A    between atoms: _300  and  _302
REMARK  132  A    between atoms: _302  and  _303
REMARK  133  A    between atoms: _302  and  _305
REMARK  134  A    between atoms: _305  and  _306
REMARK  135  A    between atoms: _312  and  _314
REMARK  136  A    between atoms: _314  and  _315
REMARK  137  A    between atoms: _314  and  _317
REMARK  138  A    between atoms: _317  and  _318
REMARK  139  A    between atoms: _323  and  _324
REMARK  140  A    between atoms: _326  and  _328
REMARK  141  A    between atoms: _328  and  _329
REMARK  142  A    between atoms: _328  and  _331
REMARK  143  A    between atoms: _331  and  _332
REMARK  144  A    between atoms: _334  and  _336
REMARK  145  A    between atoms: _336  and  _337
REMARK  146  A    between atoms: _340  and  _342
REMARK  147  A    between atoms: _342  and  _343
REMARK  148  A    between atoms: _342  and  _345
REMARK  149  A    between atoms: _345  and  _346
REMARK  150  A    between atoms: _351  and  _352
REMARK  151  A    between atoms: _354  and  _356
REMARK  152  A    between atoms: _356  and  _357
REMARK  153  A    between atoms: _356  and  _359
REMARK  154  A    between atoms: _362  and  _364
REMARK  155  A    between atoms: _364  and  _365
REMARK  156  A    between atoms: _364  and  _367
REMARK  157  A    between atoms: _367  and  _368
REMARK  158  A    between atoms: _371  and  _373
REMARK  159  A    between atoms: _373  and  _374
REMARK  160  A    between atoms: _373  and  _376
REMARK  161  A    between atoms: _379  and  _381
REMARK  162  A    between atoms: _381  and  _382
REMARK  163  A    between atoms: _381  and  _384
REMARK  164  A    between atoms: _384  and  _385
REMARK  165  A    between atoms: _388  and  _390
REMARK  166  A    between atoms: _390  and  _391
REMARK  167  A    between atoms: _390  and  _393
REMARK  168  A    between atoms: _393  and  _394
REMARK  169  A    between atoms: _397  and  _399
REMARK  170  A    between atoms: _399  and  _400
REMARK  171  A    between atoms: _399  and  _402
REMARK  172  A    between atoms: _402  and  _403
REMARK  173  A    between atoms: _403  and  _404
REMARK  174  A    between atoms: _404  and  _405
REMARK  175  A    between atoms: _405  and  _406
REMARK  176  A    between atoms: _410  and  _412
REMARK  177  A    between atoms: _412  and  _413
REMARK  178  A    between atoms: _416  and  _418
REMARK  179  A    between atoms: _418  and  _419
REMARK  180  A    between atoms: _418  and  _421
REMARK  181  A    between atoms: _421  and  _422
REMARK  182  A    between atoms: _432  and  _434
REMARK  183  A    between atoms: _434  and  _435
REMARK  184  A    between atoms: _434  and  _437
REMARK  185  A    between atoms: _437  and  _438
REMARK  186  A    between atoms: _438  and  _439
REMARK  187  A    between atoms: _442  and  _444
REMARK  188  A    between atoms: _444  and  _445
REMARK  189  A    between atoms: _444  and  _447
REMARK  190  A    between atoms: _447  and  _448
REMARK  191  A    between atoms: _450  and  _452
REMARK  192  A    between atoms: _452  and  _453
REMARK  193  A    between atoms: _452  and  _455
REMARK  194  A    between atoms: _455  and  _456
REMARK  195  A    between atoms: _462  and  _464
REMARK  196  A    between atoms: _464  and  _465
REMARK  197  A    between atoms: _464  and  _467
REMARK  198  A    between atoms: _467  and  _468
REMARK  199  A    between atoms: _471  and  _473
REMARK  200  A    between atoms: _473  and  _474
REMARK  201  A    between atoms: _473  and  _476
REMARK  202  A    between atoms: _479  and  _481
REMARK  203  A    between atoms: _481  and  _482
REMARK  204  A    between atoms: _484  and  _486
REMARK  205  A    between atoms: _486  and  _487
REMARK  206  A    between atoms: _486  and  _489
REMARK  207  A    between atoms: _489  and  _490
REMARK  208  A    between atoms: _493  and  _495
REMARK  209  A    between atoms: _495  and  _496
REMARK  210  A    between atoms: _495  and  _498
REMARK  211  A    between atoms: _498  and  _499
REMARK  212  A    between atoms: _499  and  _500
REMARK  213  A    between atoms: _500  and  _501
REMARK  214  A    between atoms: _501  and  _502
REMARK  215  A    between atoms: _506  and  _508
REMARK  216  A    between atoms: _508  and  _509
REMARK  217  A    between atoms: _508  and  _511
REMARK  218  A    between atoms: _514  and  _516
REMARK  219  A    between atoms: _516  and  _517
REMARK  220  A    between atoms: _516  and  _519
REMARK  221  A    between atoms: _519  and  _520
REMARK                            x       y       z     vdW  Elec       q    Type
REMARK                         _______ _______ _______ _____ _____    ______ ____
ROOT
ATOM      1  O   HOH     1       1.083   7.920  31.872  0.00  0.00    +0.000 OA
ENDROOT
TORSDOF 0
REMARK  Name = ../refined-set-2016/4bqg/4bqg_pocket.pdb
REMARK  221 active torsions:
REMARK  status: ('A' for Active; 'I' for Inactive)
REMARK    1  A    between atoms: _1  and  _3
REMARK    2  A    between atoms: _3  and  _4
REMARK    3  A    between atoms: _3  and  _6
REMARK    4  A    between atoms: _6  and  _7
REMARK    5  A    between atoms: _13  and  _15
REMARK    6  A    between atoms: _15  and  _16
REMARK    7  A    between atoms: _15  and  _18
REMARK    8  A    between atoms: _18  and  _19
REMARK    9  A    between atoms: _22  and  _24
REMARK   10  A    between atoms: _24  and  _25
REMARK   11  A    between atoms: _24  and  _27
REMARK   12  A    between atoms: _27  and  _28
REMARK   13  A    between atoms: _28  and  _29
REMARK   14  A    between atoms: _31  and  _33
REMARK   15  A    between atoms: _33  and  _34
REMARK   16  A    between atoms: _33  and  _36
REMARK   17  A    between atoms: _36  and  _37
REMARK   18  A    between atoms: _43  and  _45
REMARK   19  A    between atoms: _45  and  _46
REMARK   20  A    between atoms: _45  and  _48
REMARK   21  A    between atoms: _48  and  _49
REMARK   22  A    between atoms: _52  and  _54
REMARK   23  A    between atoms: _54  and  _55
REMARK   24  A    between atoms: _54  and  _57
REMARK   25  A    between atoms: _57  and  _58
REMARK   26  A    between atoms: _58  and  _59
REMARK   27  A    between atoms: _62  and  _64
REMARK   28  A    between atoms: _64  and  _65
REMARK   29  A    between atoms: _64  and  _67
REMARK   30  A    between atoms: _67  and  _68
REMARK   31  A    between atoms: _71  and  _73
REMARK   32  A    between atoms: _73  and  _74
REMARK   33  A    between atoms: _73  and  _76
REMARK   34  A    between atoms: _76  and  _77
REMARK   35  A    between atoms: _80  and  _82
REMARK   36  A    between atoms: _82  and  _83
REMARK   37  A    between atoms: _82  and  _85
REMARK   38  A    between atoms: _85  and  _86
REMARK   39  A    between atoms: _88  and  _90
REMARK   40  A    between atoms: _90  and  _91
REMARK   41  A    between atoms: _90  and  _93
REMARK   42  A    between atoms: _93  and  _94
REMARK   43  A    between atoms: _99  and  _101
REMARK   44  A    between atoms: _101  and  _102
REMARK   45  A    between atoms: _101  and  _104
REMARK   46  A    between atoms: _104  and  _105
REMARK   47  A    between atoms: _107  and  _109
REMARK   48  A    between atoms: _109  and  _110
REMARK   49  A    between atoms: _109  and  _112
REMARK   50  A    between atoms: _112  and  _113
REMARK   51  A    between atoms: _115  and  _117
REMARK   52  A    between atoms: _117  and  _118
REMARK   53  A    between atoms: _117  and  _120
REMARK   54  A    between atoms: _120  and  _121
REMARK   55  A    between atoms: _124  and  _126
REMARK   56  A    between atoms: _126  and  _127
REMARK   57  A    between atoms: _130  and  _132
REMARK   58  A    between atoms: _132  and  _133
REMARK   59  A    between atoms: _132  and  _135
REMARK   60  A    between atoms: _135  and  _136
REMARK   61  A    between atoms: _139  and  _141
REMARK   62  A    between atoms: _141  and  _142
REMARK   63  A    between atoms: _141  and  _144
REMARK   64  A    between atoms: _144  and  _145
REMARK   65  A    between atoms: _145  and  _146
REMARK   66  A    between atoms: _146  and  _147
REMARK   67  A    between atoms: _147  and  _148
REMARK   68  A    between atoms: _152  and  _154
REMARK   69  A    between atoms: _154  and  _155
REMARK   70  A    between atoms: _154  and  _157
REMARK   71  A    between atoms: _157  and  _158
REMARK   72  A    between atoms: _161  and  _163
REMARK   73  A    between atoms: _163  and  _164
REMARK   74  A    between atoms: _163  and  _166
REMARK   75  A    between atoms: _169  and  _171
REMARK   76  A    between atoms: _171  and  _172
REMARK   77  A    between atoms: _171  and  _174
REMARK   78  A    between atoms: _174  and  _175
REMARK   79  A    between atoms: _178  and  _180
REMARK   80  A    between atoms: _180  and  _181
REMARK   81  A    between atoms: _180  and  _183
REMARK   82  A    between atoms: _183  and  _184
REMARK   83  A    between atoms: _187  and  _189
REMARK   84  A    between atoms: _189  and  _190
REMARK   85  A    between atoms: _192  and  _194
REMARK   86  A    between atoms: _194  and  _195
REMARK   87  A    between atoms: _194  and  _197
REMARK   88  A    between atoms: _197  and  _198
REMARK   89  A    between atoms: _201  and  _203
REMARK   90  A    between atoms: _203  and  _204
REMARK   91  A    between atoms: _206  and  _208
REMARK   92  A    between atoms: _208  and  _209
REMARK   93  A    between atoms: _208  and  _211
REMARK   94  A    between atoms: _211  and  _212
REMARK   95  A    between atoms: _212  and  _213
REMARK   96  A    between atoms: _215  and  _217
REMARK   97  A    between atoms: _217  and  _218
REMARK   98  A    between atoms: _217  and  _220
REMARK   99  A    between atoms: _220  and  _221
REMARK  100  A    between atoms: _224  and  _226
REMARK  101  A    between atoms: _226  and  _227
REMARK  102  A    between atoms: _226  and  _229
REMARK  103  A    between atoms: _229  and  _230
REMARK  104  A    between atoms: _233  and  _235
REMARK  105  A    between atoms: _235  and  _236
REMARK  106  A    between atoms: _235  and  _238
REMARK  107  A    between atoms: _238  and  _239
REMARK  108  A    between atoms: _242  and  _244
REMARK  109  A    between atoms: _244  and  _245
REMARK  110  A    between atoms: _244  and  _247
REMARK  111  A    between atoms: _247  and  _248
REMARK  112  A    between atoms: _253  and  _255
REMARK  113  A    between atoms: _255  and  _256
REMARK  114  A    between atoms: _255  and  _258
REMARK  115  A    between atoms: _258  and  _259
REMARK  116  A    between atoms: _262  and  _264
REMARK  117  A    between atoms: _264  and  _265
REMARK  118  A    between atoms: _267  and  _269
REMARK  119  A    between atoms: _269  and  _270
REMARK  120  A    between atoms: _269  and  _272
REMARK  121  A    between atoms: _272  and  _273
REMARK  122  A    between atoms: _276  and  _278
REMARK  123  A    between atoms: _278  and  _279
REMARK  124  A    between atoms: _282  and  _284
REMARK  125  A    between atoms: _284  and  _285
REMARK  126  A    between atoms: _287  and  _289
REMARK  127  A    between atoms: _289  and  _290
REMARK  128  A    between atoms: _289  and  _292
REMARK  129  A    between atoms: _295  and  _297
REMARK  130  A    between atoms: _297  and  _298
REMARK  131  A    between atoms: _300  and  _302
REMARK  132  A    between atoms: _302  and  _303
REMARK  133  A    between atoms: _302  and  _305
REMARK  134  A    between atoms: _305  and  _306
REMARK  135  A    between atoms: _312  and  _314
REMARK  136  A    between atoms: _314  and  _315
REMARK  137  A    between atoms: _314  and  _317
REMARK  138  A    between atoms: _317  and  _318
REMARK  139  A    between atoms: _323  and  _324
REMARK  140  A    between atoms: _326  and  _328
REMARK  141  A    between atoms: _328  and  _329
REMARK  142  A    between atoms: _328  and  _331
REMARK  143  A    between atoms: _331  and  _332
REMARK  144  A    between atoms: _334  and  _336
REMARK  145  A    between atoms: _336  and  _337
REMARK  146  A    between atoms: _340  and  _342
REMARK  147  A    between atoms: _342  and  _343
REMARK  148  A    between atoms: _342  and  _345
REMARK  149  A    between atoms: _345  and  _346
REMARK  150  A    between atoms: _351  and  _352
REMARK  151  A    between atoms: _354  and  _356
REMARK  152  A    between atoms: _356  and  _357
REMARK  153  A    between atoms: _356  and  _359
REMARK  154  A    between atoms: _362  and  _364
REMARK  155  A    between atoms: _364  and  _365
REMARK  156  A    between atoms: _364  and  _367
REMARK  157  A    between atoms: _367  and  _368
REMARK  158  A    between atoms: _371  and  _373
REMARK  159  A    between atoms: _373  and  _374
REMARK  160  A    between atoms: _373  and  _376
REMARK  161  A    between atoms: _379  and  _381
REMARK  162  A    between atoms: _381  and  _382
REMARK  163  A    between atoms: _381  and  _384
REMARK  164  A    between atoms: _384  and  _385
REMARK  165  A    between atoms: _388  and  _390
REMARK  166  A    between atoms: _390  and  _391
REMARK  167  A    between atoms: _390  and  _393
REMARK  168  A    between atoms: _393  and  _394
REMARK  169  A    between atoms: _397  and  _399
REMARK  170  A    between atoms: _399  and  _400
REMARK  171  A    between atoms: _399  and  _402
REMARK  172  A    between atoms: _402  and  _403
REMARK  173  A    between atoms: _403  and  _404
REMARK  174  A    between atoms: _404  and  _405
REMARK  175  A    between atoms: _405  and  _406
REMARK  176  A    between atoms: _410  and  _412
REMARK  177  A    between atoms: _412  and  _413
REMARK  178  A    between atoms: _416  and  _418
REMARK  179  A    between atoms: _418  and  _419
REMARK  180  A    between atoms: _418  and  _421
REMARK  181  A    between atoms: _421  and  _422
REMARK  182  A    between atoms: _432  and  _434
REMARK  183  A    between atoms: _434  and  _435
REMARK  184  A    between atoms: _434  and  _437
REMARK  185  A    between atoms: _437  and  _438
REMARK  186  A    between atoms: _438  and  _439
REMARK  187  A    between atoms: _442  and  _444
REMARK  188  A    between atoms: _444  and  _445
REMARK  189  A    between atoms: _444  and  _447
REMARK  190  A    between atoms: _447  and  _448
REMARK  191  A    between atoms: _450  and  _452
REMARK  192  A    between atoms: _452  and  _453
REMARK  193  A    between atoms: _452  and  _455
REMARK  194  A    between atoms: _455  and  _456
REMARK  195  A    between atoms: _462  and  _464
REMARK  196  A    between atoms: _464  and  _465
REMARK  197  A    between atoms: _464  and  _467
REMARK  198  A    between atoms: _467  and  _468
REMARK  199  A    between atoms: _471  and  _473
REMARK  200  A    between atoms: _473  and  _474
REMARK  201  A    between atoms: _473  and  _476
REMARK  202  A    between atoms: _479  and  _481
REMARK  203  A    between atoms: _481  and  _482
REMARK  204  A    between atoms: _484  and  _486
REMARK  205  A    between atoms: _486  and  _487
REMARK  206  A    between atoms: _486  and  _489
REMARK  207  A    between atoms: _489  and  _490
REMARK  208  A    between atoms: _493  and  _495
REMARK  209  A    between atoms: _495  and  _496
REMARK  210  A    between atoms: _495  and  _498
REMARK  211  A    between atoms: _498  and  _499
REMARK  212  A    between atoms: _499  and  _500
REMARK  213  A    between atoms: _500  and  _501
REMARK  214  A    between atoms: _501  and  _502
REMARK  215  A    between atoms: _506  and  _508
REMARK  216  A    between atoms: _508  and  _509
REMARK  217  A    between atoms: _508  and  _511
REMARK  218  A    between atoms: _514  and  _516
REMARK  219  A    between atoms: _516  and  _517
REMARK  220  A    between atoms: _516  and  _519
REMARK  221  A    between atoms: _519  and  _520
REMARK                            x       y       z     vdW  Elec       q    Type
REMARK                         _______ _______ _______ _____ _____    ______ ____
ROOT
ATOM      1  O   HOH     1      10.239  12.589  29.046  0.00  0.00    +0.000 OA
ENDROOT
TORSDOF 0
REMARK  Name = ../refined-set-2016/4bqg/4bqg_pocket.pdb
REMARK  221 active torsions:
REMARK  status: ('A' for Active; 'I' for Inactive)
REMARK    1  A    between atoms: _1  and  _3
REMARK    2  A    between atoms: _3  and  _4
REMARK    3  A    between atoms: _3  and  _6
REMARK    4  A    between atoms: _6  and  _7
REMARK    5  A    between atoms: _13  and  _15
REMARK    6  A    between atoms: _15  and  _16
REMARK    7  A    between atoms: _15  and  _18
REMARK    8  A    between atoms: _18  and  _19
REMARK    9  A    between atoms: _22  and  _24
REMARK   10  A    between atoms: _24  and  _25
REMARK   11  A    between atoms: _24  and  _27
REMARK   12  A    between atoms: _27  and  _28
REMARK   13  A    between atoms: _28  and  _29
REMARK   14  A    between atoms: _31  and  _33
REMARK   15  A    between atoms: _33  and  _34
REMARK   16  A    between atoms: _33  and  _36
REMARK   17  A    between atoms: _36  and  _37
REMARK   18  A    between atoms: _43  and  _45
REMARK   19  A    between atoms: _45  and  _46
REMARK   20  A    between atoms: _45  and  _48
REMARK   21  A    between atoms: _48  and  _49
REMARK   22  A    between atoms: _52  and  _54
REMARK   23  A    between atoms: _54  and  _55
REMARK   24  A    between atoms: _54  and  _57
REMARK   25  A    between atoms: _57  and  _58
REMARK   26  A    between atoms: _58  and  _59
REMARK   27  A    between atoms: _62  and  _64
REMARK   28  A    between atoms: _64  and  _65
REMARK   29  A    between atoms: _64  and  _67
REMARK   30  A    between atoms: _67  and  _68
REMARK   31  A    between atoms: _71  and  _73
REMARK   32  A    between atoms: _73  and  _74
REMARK   33  A    between atoms: _73  and  _76
REMARK   34  A    between atoms: _76  and  _77
REMARK   35  A    between atoms: _80  and  _82
REMARK   36  A    between atoms: _82  and  _83
REMARK   37  A    between atoms: _82  and  _85
REMARK   38  A    between atoms: _85  and  _86
REMARK   39  A    between atoms: _88  and  _90
REMARK   40  A    between atoms: _90  and  _91
REMARK   41  A    between atoms: _90  and  _93
REMARK   42  A    between atoms: _93  and  _94
REMARK   43  A    between atoms: _99  and  _101
REMARK   44  A    between atoms: _101  and  _102
REMARK   45  A    between atoms: _101  and  _104
REMARK   46  A    between atoms: _104  and  _105
REMARK   47  A    between atoms: _107  and  _109
REMARK   48  A    between atoms: _109  and  _110
REMARK   49  A    between atoms: _109  and  _112
REMARK   50  A    between atoms: _112  and  _113
REMARK   51  A    between atoms: _115  and  _117
REMARK   52  A    between atoms: _117  and  _118
REMARK   53  A    between atoms: _117  and  _120
REMARK   54  A    between atoms: _120  and  _121
REMARK   55  A    between atoms: _124  and  _126
REMARK   56  A    between atoms: _126  and  _127
REMARK   57  A    between atoms: _130  and  _132
REMARK   58  A    between atoms: _132  and  _133
REMARK   59  A    between atoms: _132  and  _135
REMARK   60  A    between atoms: _135  and  _136
REMARK   61  A    between atoms: _139  and  _141
REMARK   62  A    between atoms: _141  and  _142
REMARK   63  A    between atoms: _141  and  _144
REMARK   64  A    between atoms: _144  and  _145
REMARK   65  A    between atoms: _145  and  _146
REMARK   66  A    between atoms: _146  and  _147
REMARK   67  A    between atoms: _147  and  _148
REMARK   68  A    between atoms: _152  and  _154
REMARK   69  A    between atoms: _154  and  _155
REMARK   70  A    between atoms: _154  and  _157
REMARK   71  A    between atoms: _157  and  _158
REMARK   72  A    between atoms: _161  and  _163
REMARK   73  A    between atoms: _163  and  _164
REMARK   74  A    between atoms: _163  and  _166
REMARK   75  A    between atoms: _169  and  _171
REMARK   76  A    between atoms: _171  and  _172
REMARK   77  A    between atoms: _171  and  _174
REMARK   78  A    between atoms: _174  and  _175
REMARK   79  A    between atoms: _178  and  _180
REMARK   80  A    between atoms: _180  and  _181
REMARK   81  A    between atoms: _180  and  _183
REMARK   82  A    between atoms: _183  and  _184
REMARK   83  A    between atoms: _187  and  _189
REMARK   84  A    between atoms: _189  and  _190
REMARK   85  A    between atoms: _192  and  _194
REMARK   86  A    between atoms: _194  and  _195
REMARK   87  A    between atoms: _194  and  _197
REMARK   88  A    between atoms: _197  and  _198
REMARK   89  A    between atoms: _201  and  _203
REMARK   90  A    between atoms: _203  and  _204
REMARK   91  A    between atoms: _206  and  _208
REMARK   92  A    between atoms: _208  and  _209
REMARK   93  A    between atoms: _208  and  _211
REMARK   94  A    between atoms: _211  and  _212
REMARK   95  A    between atoms: _212  and  _213
REMARK   96  A    between atoms: _215  and  _217
REMARK   97  A    between atoms: _217  and  _218
REMARK   98  A    between atoms: _217  and  _220
REMARK   99  A    between atoms: _220  and  _221
REMARK  100  A    between atoms: _224  and  _226
REMARK  101  A    between atoms: _226  and  _227
REMARK  102  A    between atoms: _226  and  _229
REMARK  103  A    between atoms: _229  and  _230
REMARK  104  A    between atoms: _233  and  _235
REMARK  105  A    between atoms: _235  and  _236
REMARK  106  A    between atoms: _235  and  _238
REMARK  107  A    between atoms: _238  and  _239
REMARK  108  A    between atoms: _242  and  _244
REMARK  109  A    between atoms: _244  and  _245
REMARK  110  A    between atoms: _244  and  _247
REMARK  111  A    between atoms: _247  and  _248
REMARK  112  A    between atoms: _253  and  _255
REMARK  113  A    between atoms: _255  and  _256
REMARK  114  A    between atoms: _255  and  _258
REMARK  115  A    between atoms: _258  and  _259
REMARK  116  A    between atoms: _262  and  _264
REMARK  117  A    between atoms: _264  and  _265
REMARK  118  A    between atoms: _267  and  _269
REMARK  119  A    between atoms: _269  and  _270
REMARK  120  A    between atoms: _269  and  _272
REMARK  121  A    between atoms: _272  and  _273
REMARK  122  A    between atoms: _276  and  _278
REMARK  123  A    between atoms: _278  and  _279
REMARK  124  A    between atoms: _282  and  _284
REMARK  125  A    between atoms: _284  and  _285
REMARK  126  A    between atoms: _287  and  _289
REMARK  127  A    between atoms: _289  and  _290
REMARK  128  A    between atoms: _289  and  _292
REMARK  129  A    between atoms: _295  and  _297
REMARK  130  A    between atoms: _297  and  _298
REMARK  131  A    between atoms: _300  and  _302
REMARK  132  A    between atoms: _302  and  _303
REMARK  133  A    between atoms: _302  and  _305
REMARK  134  A    between atoms: _305  and  _306
REMARK  135  A    between atoms: _312  and  _314
REMARK  136  A    between atoms: _314  and  _315
REMARK  137  A    between atoms: _314  and  _317
REMARK  138  A    between atoms: _317  and  _318
REMARK  139  A    between atoms: _323  and  _324
REMARK  140  A    between atoms: _326  and  _328
REMARK  141  A    between atoms: _328  and  _329
REMARK  142  A    between atoms: _328  and  _331
REMARK  143  A    between atoms: _331  and  _332
REMARK  144  A    between atoms: _334  and  _336
REMARK  145  A    between atoms: _336  and  _337
REMARK  146  A    between atoms: _340  and  _342
REMARK  147  A    between atoms: _342  and  _343
REMARK  148  A    between atoms: _342  and  _345
REMARK  149  A    between atoms: _345  and  _346
REMARK  150  A    between atoms: _351  and  _352
REMARK  151  A    between atoms: _354  and  _356
REMARK  152  A    between atoms: _356  and  _357
REMARK  153  A    between atoms: _356  and  _359
REMARK  154  A    between atoms: _362  and  _364
REMARK  155  A    between atoms: _364  and  _365
REMARK  156  A    between atoms: _364  and  _367
REMARK  157  A    between atoms: _367  and  _368
REMARK  158  A    between atoms: _371  and  _373
REMARK  159  A    between atoms: _373  and  _374
REMARK  160  A    between atoms: _373  and  _376
REMARK  161  A    between atoms: _379  and  _381
REMARK  162  A    between atoms: _381  and  _382
REMARK  163  A    between atoms: _381  and  _384
REMARK  164  A    between atoms: _384  and  _385
REMARK  165  A    between atoms: _388  and  _390
REMARK  166  A    between atoms: _390  and  _391
REMARK  167  A    between atoms: _390  and  _393
REMARK  168  A    between atoms: _393  and  _394
REMARK  169  A    between atoms: _397  and  _399
REMARK  170  A    between atoms: _399  and  _400
REMARK  171  A    between atoms: _399  and  _402
REMARK  172  A    between atoms: _402  and  _403
REMARK  173  A    between atoms: _403  and  _404
REMARK  174  A    between atoms: _404  and  _405
REMARK  175  A    between atoms: _405  and  _406
REMARK  176  A    between atoms: _410  and  _412
REMARK  177  A    between atoms: _412  and  _413
REMARK  178  A    between atoms: _416  and  _418
REMARK  179  A    between atoms: _418  and  _419
REMARK  180  A    between atoms: _418  and  _421
REMARK  181  A    between atoms: _421  and  _422
REMARK  182  A    between atoms: _432  and  _434
REMARK  183  A    between atoms: _434  and  _435
REMARK  184  A    between atoms: _434  and  _437
REMARK  185  A    between atoms: _437  and  _438
REMARK  186  A    between atoms: _438  and  _439
REMARK  187  A    between atoms: _442  and  _444
REMARK  188  A    between atoms: _444  and  _445
REMARK  189  A    between atoms: _444  and  _447
REMARK  190  A    between atoms: _447  and  _448
REMARK  191  A    between atoms: _450  and  _452
REMARK  192  A    between atoms: _452  and  _453
REMARK  193  A    between atoms: _452  and  _455
REMARK  194  A    between atoms: _455  and  _456
REMARK  195  A    between atoms: _462  and  _464
REMARK  196  A    between atoms: _464  and  _465
REMARK  197  A    between atoms: _464  and  _467
REMARK  198  A    between atoms: _467  and  _468
REMARK  199  A    between atoms: _471  and  _473
REMARK  200  A    between atoms: _473  and  _474
REMARK  201  A    between atoms: _473  and  _476
REMARK  202  A    between atoms: _479  and  _481
REMARK  203  A    between atoms: _481  and  _482
REMARK  204  A    between atoms: _484  and  _486
REMARK  205  A    between atoms: _486  and  _487
REMARK  206  A    between atoms: _486  and  _489
REMARK  207  A    between atoms: _489  and  _490
REMARK  208  A    between atoms: _493  and  _495
REMARK  209  A    between atoms: _495  and  _496
REMARK  210  A    between atoms: _495  and  _498
REMARK  211  A    between atoms: _498  and  _499
REMARK  212  A    between atoms: _499  and  _500
REMARK  213  A    between atoms: _500  and  _501
REMARK  214  A    between atoms: _501  and  _502
REMARK  215  A    between atoms: _506  and  _508
REMARK  216  A    between atoms: _508  and  _509
REMARK  217  A    between atoms: _508  and  _511
REMARK  218  A    between atoms: _514  and  _516
REMARK  219  A    between atoms: _516  and  _517
REMARK  220  A    between atoms: _516  and  _519
REMARK  221  A    between atoms: _519  and  _520
REMARK                            x       y       z     vdW  Elec       q    Type
REMARK                         _______ _______ _______ _____ _____    ______ ____
ROOT
ATOM      1  O   HOH     1       9.866  15.532  27.231  0.00  0.00    +0.000 OA
ENDROOT
TORSDOF 0
REMARK  Name = ../refined-set-2016/4bqg/4bqg_pocket.pdb
REMARK  221 active torsions:
REMARK  status: ('A' for Active; 'I' for Inactive)
REMARK    1  A    between atoms: _1  and  _3
REMARK    2  A    between atoms: _3  and  _4
REMARK    3  A    between atoms: _3  and  _6
REMARK    4  A    between atoms: _6  and  _7
REMARK    5  A    between atoms: _13  and  _15
REMARK    6  A    between atoms: _15  and  _16
REMARK    7  A    between atoms: _15  and  _18
REMARK    8  A    between atoms: _18  and  _19
REMARK    9  A    between atoms: _22  and  _24
REMARK   10  A    between atoms: _24  and  _25
REMARK   11  A    between atoms: _24  and  _27
REMARK   12  A    between atoms: _27  and  _28
REMARK   13  A    between atoms: _28  and  _29
REMARK   14  A    between atoms: _31  and  _33
REMARK   15  A    between atoms: _33  and  _34
REMARK   16  A    between atoms: _33  and  _36
REMARK   17  A    between atoms: _36  and  _37
REMARK   18  A    between atoms: _43  and  _45
REMARK   19  A    between atoms: _45  and  _46
REMARK   20  A    between atoms: _45  and  _48
REMARK   21  A    between atoms: _48  and  _49
REMARK   22  A    between atoms: _52  and  _54
REMARK   23  A    between atoms: _54  and  _55
REMARK   24  A    between atoms: _54  and  _57
REMARK   25  A    between atoms: _57  and  _58
REMARK   26  A    between atoms: _58  and  _59
REMARK   27  A    between atoms: _62  and  _64
REMARK   28  A    between atoms: _64  and  _65
REMARK   29  A    between atoms: _64  and  _67
REMARK   30  A    between atoms: _67  and  _68
REMARK   31  A    between atoms: _71  and  _73
REMARK   32  A    between atoms: _73  and  _74
REMARK   33  A    between atoms: _73  and  _76
REMARK   34  A    between atoms: _76  and  _77
REMARK   35  A    between atoms: _80  and  _82
REMARK   36  A    between atoms: _82  and  _83
REMARK   37  A    between atoms: _82  and  _85
REMARK   38  A    between atoms: _85  and  _86
REMARK   39  A    between atoms: _88  and  _90
REMARK   40  A    between atoms: _90  and  _91
REMARK   41  A    between atoms: _90  and  _93
REMARK   42  A    between atoms: _93  and  _94
REMARK   43  A    between atoms: _99  and  _101
REMARK   44  A    between atoms: _101  and  _102
REMARK   45  A    between atoms: _101  and  _104
REMARK   46  A    between atoms: _104  and  _105
REMARK   47  A    between atoms: _107  and  _109
REMARK   48  A    between atoms: _109  and  _110
REMARK   49  A    between atoms: _109  and  _112
REMARK   50  A    between atoms: _112  and  _113
REMARK   51  A    between atoms: _115  and  _117
REMARK   52  A    between atoms: _117  and  _118
REMARK   53  A    between atoms: _117  and  _120
REMARK   54  A    between atoms: _120  and  _121
REMARK   55  A    between atoms: _124  and  _126
REMARK   56  A    between atoms: _126  and  _127
REMARK   57  A    between atoms: _130  and  _132
REMARK   58  A    between atoms: _132  and  _133
REMARK   59  A    between atoms: _132  and  _135
REMARK   60  A    between atoms: _135  and  _136
REMARK   61  A    between atoms: _139  and  _141
REMARK   62  A    between atoms: _141  and  _142
REMARK   63  A    between atoms: _141  and  _144
REMARK   64  A    between atoms: _144  and  _145
REMARK   65  A    between atoms: _145  and  _146
REMARK   66  A    between atoms: _146  and  _147
REMARK   67  A    between atoms: _147  and  _148
REMARK   68  A    between atoms: _152  and  _154
REMARK   69  A    between atoms: _154  and  _155
REMARK   70  A    between atoms: _154  and  _157
REMARK   71  A    between atoms: _157  and  _158
REMARK   72  A    between atoms: _161  and  _163
REMARK   73  A    between atoms: _163  and  _164
REMARK   74  A    between atoms: _163  and  _166
REMARK   75  A    between atoms: _169  and  _171
REMARK   76  A    between atoms: _171  and  _172
REMARK   77  A    between atoms: _171  and  _174
REMARK   78  A    between atoms: _174  and  _175
REMARK   79  A    between atoms: _178  and  _180
REMARK   80  A    between atoms: _180  and  _181
REMARK   81  A    between atoms: _180  and  _183
REMARK   82  A    between atoms: _183  and  _184
REMARK   83  A    between atoms: _187  and  _189
REMARK   84  A    between atoms: _189  and  _190
REMARK   85  A    between atoms: _192  and  _194
REMARK   86  A    between atoms: _194  and  _195
REMARK   87  A    between atoms: _194  and  _197
REMARK   88  A    between atoms: _197  and  _198
REMARK   89  A    between atoms: _201  and  _203
REMARK   90  A    between atoms: _203  and  _204
REMARK   91  A    between atoms: _206  and  _208
REMARK   92  A    between atoms: _208  and  _209
REMARK   93  A    between atoms: _208  and  _211
REMARK   94  A    between atoms: _211  and  _212
REMARK   95  A    between atoms: _212  and  _213
REMARK   96  A    between atoms: _215  and  _217
REMARK   97  A    between atoms: _217  and  _218
REMARK   98  A    between atoms: _217  and  _220
REMARK   99  A    between atoms: _220  and  _221
REMARK  100  A    between atoms: _224  and  _226
REMARK  101  A    between atoms: _226  and  _227
REMARK  102  A    between atoms: _226  and  _229
REMARK  103  A    between atoms: _229  and  _230
REMARK  104  A    between atoms: _233  and  _235
REMARK  105  A    between atoms: _235  and  _236
REMARK  106  A    between atoms: _235  and  _238
REMARK  107  A    between atoms: _238  and  _239
REMARK  108  A    between atoms: _242  and  _244
REMARK  109  A    between atoms: _244  and  _245
REMARK  110  A    between atoms: _244  and  _247
REMARK  111  A    between atoms: _247  and  _248
REMARK  112  A    between atoms: _253  and  _255
REMARK  113  A    between atoms: _255  and  _256
REMARK  114  A    between atoms: _255  and  _258
REMARK  115  A    between atoms: _258  and  _259
REMARK  116  A    between atoms: _262  and  _264
REMARK  117  A    between atoms: _264  and  _265
REMARK  118  A    between atoms: _267  and  _269
REMARK  119  A    between atoms: _269  and  _270
REMARK  120  A    between atoms: _269  and  _272
REMARK  121  A    between atoms: _272  and  _273
REMARK  122  A    between atoms: _276  and  _278
REMARK  123  A    between atoms: _278  and  _279
REMARK  124  A    between atoms: _282  and  _284
REMARK  125  A    between atoms: _284  and  _285
REMARK  126  A    between atoms: _287  and  _289
REMARK  127  A    between atoms: _289  and  _290
REMARK  128  A    between atoms: _289  and  _292
REMARK  129  A    between atoms: _295  and  _297
REMARK  130  A    between atoms: _297  and  _298
REMARK  131  A    between atoms: _300  and  _302
REMARK  132  A    between atoms: _302  and  _303
REMARK  133  A    between atoms: _302  and  _305
REMARK  134  A    between atoms: _305  and  _306
REMARK  135  A    between atoms: _312  and  _314
REMARK  136  A    between atoms: _314  and  _315
REMARK  137  A    between atoms: _314  and  _317
REMARK  138  A    between atoms: _317  and  _318
REMARK  139  A    between atoms: _323  and  _324
REMARK  140  A    between atoms: _326  and  _328
REMARK  141  A    between atoms: _328  and  _329
REMARK  142  A    between atoms: _328  and  _331
REMARK  143  A    between atoms: _331  and  _332
REMARK  144  A    between atoms: _334  and  _336
REMARK  145  A    between atoms: _336  and  _337
REMARK  146  A    between atoms: _340  and  _342
REMARK  147  A    between atoms: _342  and  _343
REMARK  148  A    between atoms: _342  and  _345
REMARK  149  A    between atoms: _345  and  _346
REMARK  150  A    between atoms: _351  and  _352
REMARK  151  A    between atoms: _354  and  _356
REMARK  152  A    between atoms: _356  and  _357
REMARK  153  A    between atoms: _356  and  _359
REMARK  154  A    between atoms: _362  and  _364
REMARK  155  A    between atoms: _364  and  _365
REMARK  156  A    between atoms: _364  and  _367
REMARK  157  A    between atoms: _367  and  _368
REMARK  158  A    between atoms: _371  and  _373
REMARK  159  A    between atoms: _373  and  _374
REMARK  160  A    between atoms: _373  and  _376
REMARK  161  A    between atoms: _379  and  _381
REMARK  162  A    between atoms: _381  and  _382
REMARK  163  A    between atoms: _381  and  _384
REMARK  164  A    between atoms: _384  and  _385
REMARK  165  A    between atoms: _388  and  _390
REMARK  166  A    between atoms: _390  and  _391
REMARK  167  A    between atoms: _390  and  _393
REMARK  168  A    between atoms: _393  and  _394
REMARK  169  A    between atoms: _397  and  _399
REMARK  170  A    between atoms: _399  and  _400
REMARK  171  A    between atoms: _399  and  _402
REMARK  172  A    between atoms: _402  and  _403
REMARK  173  A    between atoms: _403  and  _404
REMARK  174  A    between atoms: _404  and  _405
REMARK  175  A    between atoms: _405  and  _406
REMARK  176  A    between atoms: _410  and  _412
REMARK  177  A    between atoms: _412  and  _413
REMARK  178  A    between atoms: _416  and  _418
REMARK  179  A    between atoms: _418  and  _419
REMARK  180  A    between atoms: _418  and  _421
REMARK  181  A    between atoms: _421  and  _422
REMARK  182  A    between atoms: _432  and  _434
REMARK  183  A    between atoms: _434  and  _435
REMARK  184  A    between atoms: _434  and  _437
REMARK  185  A    between atoms: _437  and  _438
REMARK  186  A    between atoms: _438  and  _439
REMARK  187  A    between atoms: _442  and  _444
REMARK  188  A    between atoms: _444  and  _445
REMARK  189  A    between atoms: _444  and  _447
REMARK  190  A    between atoms: _447  and  _448
REMARK  191  A    between atoms: _450  and  _452
REMARK  192  A    between atoms: _452  and  _453
REMARK  193  A    between atoms: _452  and  _455
REMARK  194  A    between atoms: _455  and  _456
REMARK  195  A    between atoms: _462  and  _464
REMARK  196  A    between atoms: _464  and  _465
REMARK  197  A    between atoms: _464  and  _467
REMARK  198  A    between atoms: _467  and  _468
REMARK  199  A    between atoms: _471  and  _473
REMARK  200  A    between atoms: _473  and  _474
REMARK  201  A    between atoms: _473  and  _476
REMARK  202  A    between atoms: _479  and  _481
REMARK  203  A    between atoms: _481  and  _482
REMARK  204  A    between atoms: _484  and  _486
REMARK  205  A    between atoms: _486  and  _487
REMARK  206  A    between atoms: _486  and  _489
REMARK  207  A    between atoms: _489  and  _490
REMARK  208  A    between atoms: _493  and  _495
REMARK  209  A    between atoms: _495  and  _496
REMARK  210  A    between atoms: _495  and  _498
REMARK  211  A    between atoms: _498  and  _499
REMARK  212  A    between atoms: _499  and  _500
REMARK  213  A    between atoms: _500  and  _501
REMARK  214  A    between atoms: _501  and  _502
REMARK  215  A    between atoms: _506  and  _508
REMARK  216  A    between atoms: _508  and  _509
REMARK  217  A    between atoms: _508  and  _511
REMARK  218  A    between atoms: _514  and  _516
REMARK  219  A    between atoms: _516  and  _517
REMARK  220  A    between atoms: _516  and  _519
REMARK  221  A    between atoms: _519  and  _520
REMARK                            x       y       z     vdW  Elec       q    Type
REMARK                         _______ _______ _______ _____ _____    ______ ____
ROOT
ATOM      1  O   HOH     1       4.295   6.889  18.248  0.00  0.00    +0.000 OA
ENDROOT
TORSDOF 0
REMARK  Name = ../refined-set-2016/4bqg/4bqg_pocket.pdb
REMARK  221 active torsions:
REMARK  status: ('A' for Active; 'I' for Inactive)
REMARK    1  A    between atoms: _1  and  _3
REMARK    2  A    between atoms: _3  and  _4
REMARK    3  A    between atoms: _3  and  _6
REMARK    4  A    between atoms: _6  and  _7
REMARK    5  A    between atoms: _13  and  _15
REMARK    6  A    between atoms: _15  and  _16
REMARK    7  A    between atoms: _15  and  _18
REMARK    8  A    between atoms: _18  and  _19
REMARK    9  A    between atoms: _22  and  _24
REMARK   10  A    between atoms: _24  and  _25
REMARK   11  A    between atoms: _24  and  _27
REMARK   12  A    between atoms: _27  and  _28
REMARK   13  A    between atoms: _28  and  _29
REMARK   14  A    between atoms: _31  and  _33
REMARK   15  A    between atoms: _33  and  _34
REMARK   16  A    between atoms: _33  and  _36
REMARK   17  A    between atoms: _36  and  _37
REMARK   18  A    between atoms: _43  and  _45
REMARK   19  A    between atoms: _45  and  _46
REMARK   20  A    between atoms: _45  and  _48
REMARK   21  A    between atoms: _48  and  _49
REMARK   22  A    between atoms: _52  and  _54
REMARK   23  A    between atoms: _54  and  _55
REMARK   24  A    between atoms: _54  and  _57
REMARK   25  A    between atoms: _57  and  _58
REMARK   26  A    between atoms: _58  and  _59
REMARK   27  A    between atoms: _62  and  _64
REMARK   28  A    between atoms: _64  and  _65
REMARK   29  A    between atoms: _64  and  _67
REMARK   30  A    between atoms: _67  and  _68
REMARK   31  A    between atoms: _71  and  _73
REMARK   32  A    between atoms: _73  and  _74
REMARK   33  A    between atoms: _73  and  _76
REMARK   34  A    between atoms: _76  and  _77
REMARK   35  A    between atoms: _80  and  _82
REMARK   36  A    between atoms: _82  and  _83
REMARK   37  A    between atoms: _82  and  _85
REMARK   38  A    between atoms: _85  and  _86
REMARK   39  A    between atoms: _88  and  _90
REMARK   40  A    between atoms: _90  and  _91
REMARK   41  A    between atoms: _90  and  _93
REMARK   42  A    between atoms: _93  and  _94
REMARK   43  A    between atoms: _99  and  _101
REMARK   44  A    between atoms: _101  and  _102
REMARK   45  A    between atoms: _101  and  _104
REMARK   46  A    between atoms: _104  and  _105
REMARK   47  A    between atoms: _107  and  _109
REMARK   48  A    between atoms: _109  and  _110
REMARK   49  A    between atoms: _109  and  _112
REMARK   50  A    between atoms: _112  and  _113
REMARK   51  A    between atoms: _115  and  _117
REMARK   52  A    between atoms: _117  and  _118
REMARK   53  A    between atoms: _117  and  _120
REMARK   54  A    between atoms: _120  and  _121
REMARK   55  A    between atoms: _124  and  _126
REMARK   56  A    between atoms: _126  and  _127
REMARK   57  A    between atoms: _130  and  _132
REMARK   58  A    between atoms: _132  and  _133
REMARK   59  A    between atoms: _132  and  _135
REMARK   60  A    between atoms: _135  and  _136
REMARK   61  A    between atoms: _139  and  _141
REMARK   62  A    between atoms: _141  and  _142
REMARK   63  A    between atoms: _141  and  _144
REMARK   64  A    between atoms: _144  and  _145
REMARK   65  A    between atoms: _145  and  _146
REMARK   66  A    between atoms: _146  and  _147
REMARK   67  A    between atoms: _147  and  _148
REMARK   68  A    between atoms: _152  and  _154
REMARK   69  A    between atoms: _154  and  _155
REMARK   70  A    between atoms: _154  and  _157
REMARK   71  A    between atoms: _157  and  _158
REMARK   72  A    between atoms: _161  and  _163
REMARK   73  A    between atoms: _163  and  _164
REMARK   74  A    between atoms: _163  and  _166
REMARK   75  A    between atoms: _169  and  _171
REMARK   76  A    between atoms: _171  and  _172
REMARK   77  A    between atoms: _171  and  _174
REMARK   78  A    between atoms: _174  and  _175
REMARK   79  A    between atoms: _178  and  _180
REMARK   80  A    between atoms: _180  and  _181
REMARK   81  A    between atoms: _180  and  _183
REMARK   82  A    between atoms: _183  and  _184
REMARK   83  A    between atoms: _187  and  _189
REMARK   84  A    between atoms: _189  and  _190
REMARK   85  A    between atoms: _192  and  _194
REMARK   86  A    between atoms: _194  and  _195
REMARK   87  A    between atoms: _194  and  _197
REMARK   88  A    between atoms: _197  and  _198
REMARK   89  A    between atoms: _201  and  _203
REMARK   90  A    between atoms: _203  and  _204
REMARK   91  A    between atoms: _206  and  _208
REMARK   92  A    between atoms: _208  and  _209
REMARK   93  A    between atoms: _208  and  _211
REMARK   94  A    between atoms: _211  and  _212
REMARK   95  A    between atoms: _212  and  _213
REMARK   96  A    between atoms: _215  and  _217
REMARK   97  A    between atoms: _217  and  _218
REMARK   98  A    between atoms: _217  and  _220
REMARK   99  A    between atoms: _220  and  _221
REMARK  100  A    between atoms: _224  and  _226
REMARK  101  A    between atoms: _226  and  _227
REMARK  102  A    between atoms: _226  and  _229
REMARK  103  A    between atoms: _229  and  _230
REMARK  104  A    between atoms: _233  and  _235
REMARK  105  A    between atoms: _235  and  _236
REMARK  106  A    between atoms: _235  and  _238
REMARK  107  A    between atoms: _238  and  _239
REMARK  108  A    between atoms: _242  and  _244
REMARK  109  A    between atoms: _244  and  _245
REMARK  110  A    between atoms: _244  and  _247
REMARK  111  A    between atoms: _247  and  _248
REMARK  112  A    between atoms: _253  and  _255
REMARK  113  A    between atoms: _255  and  _256
REMARK  114  A    between atoms: _255  and  _258
REMARK  115  A    between atoms: _258  and  _259
REMARK  116  A    between atoms: _262  and  _264
REMARK  117  A    between atoms: _264  and  _265
REMARK  118  A    between atoms: _267  and  _269
REMARK  119  A    between atoms: _269  and  _270
REMARK  120  A    between atoms: _269  and  _272
REMARK  121  A    between atoms: _272  and  _273
REMARK  122  A    between atoms: _276  and  _278
REMARK  123  A    between atoms: _278  and  _279
REMARK  124  A    between atoms: _282  and  _284
REMARK  125  A    between atoms: _284  and  _285
REMARK  126  A    between atoms: _287  and  _289
REMARK  127  A    between atoms: _289  and  _290
REMARK  128  A    between atoms: _289  and  _292
REMARK  129  A    between atoms: _295  and  _297
REMARK  130  A    between atoms: _297  and  _298
REMARK  131  A    between atoms: _300  and  _302
REMARK  132  A    between atoms: _302  and  _303
REMARK  133  A    between atoms: _302  and  _305
REMARK  134  A    between atoms: _305  and  _306
REMARK  135  A    between atoms: _312  and  _314
REMARK  136  A    between atoms: _314  and  _315
REMARK  137  A    between atoms: _314  and  _317
REMARK  138  A    between atoms: _317  and  _318
REMARK  139  A    between atoms: _323  and  _324
REMARK  140  A    between atoms: _326  and  _328
REMARK  141  A    between atoms: _328  and  _329
REMARK  142  A    between atoms: _328  and  _331
REMARK  143  A    between atoms: _331  and  _332
REMARK  144  A    between atoms: _334  and  _336
REMARK  145  A    between atoms: _336  and  _337
REMARK  146  A    between atoms: _340  and  _342
REMARK  147  A    between atoms: _342  and  _343
REMARK  148  A    between atoms: _342  and  _345
REMARK  149  A    between atoms: _345  and  _346
REMARK  150  A    between atoms: _351  and  _352
REMARK  151  A    between atoms: _354  and  _356
REMARK  152  A    between atoms: _356  and  _357
REMARK  153  A    between atoms: _356  and  _359
REMARK  154  A    between atoms: _362  and  _364
REMARK  155  A    between atoms: _364  and  _365
REMARK  156  A    between atoms: _364  and  _367
REMARK  157  A    between atoms: _367  and  _368
REMARK  158  A    between atoms: _371  and  _373
REMARK  159  A    between atoms: _373  and  _374
REMARK  160  A    between atoms: _373  and  _376
REMARK  161  A    between atoms: _379  and  _381
REMARK  162  A    between atoms: _381  and  _382
REMARK  163  A    between atoms: _381  and  _384
REMARK  164  A    between atoms: _384  and  _385
REMARK  165  A    between atoms: _388  and  _390
REMARK  166  A    between atoms: _390  and  _391
REMARK  167  A    between atoms: _390  and  _393
REMARK  168  A    between atoms: _393  and  _394
REMARK  169  A    between atoms: _397  and  _399
REMARK  170  A    between atoms: _399  and  _400
REMARK  171  A    between atoms: _399  and  _402
REMARK  172  A    between atoms: _402  and  _403
REMARK  173  A    between atoms: _403  and  _404
REMARK  174  A    between atoms: _404  and  _405
REMARK  175  A    between atoms: _405  and  _406
REMARK  176  A    between atoms: _410  and  _412
REMARK  177  A    between atoms: _412  and  _413
REMARK  178  A    between atoms: _416  and  _418
REMARK  179  A    between atoms: _418  and  _419
REMARK  180  A    between atoms: _418  and  _421
REMARK  181  A    between atoms: _421  and  _422
REMARK  182  A    between atoms: _432  and  _434
REMARK  183  A    between atoms: _434  and  _435
REMARK  184  A    between atoms: _434  and  _437
REMARK  185  A    between atoms: _437  and  _438
REMARK  186  A    between atoms: _438  and  _439
REMARK  187  A    between atoms: _442  and  _444
REMARK  188  A    between atoms: _444  and  _445
REMARK  189  A    between atoms: _444  and  _447
REMARK  190  A    between atoms: _447  and  _448
REMARK  191  A    between atoms: _450  and  _452
REMARK  192  A    between atoms: _452  and  _453
REMARK  193  A    between atoms: _452  and  _455
REMARK  194  A    between atoms: _455  and  _456
REMARK  195  A    between atoms: _462  and  _464
REMARK  196  A    between atoms: _464  and  _465
REMARK  197  A    between atoms: _464  and  _467
REMARK  198  A    between atoms: _467  and  _468
REMARK  199  A    between atoms: _471  and  _473
REMARK  200  A    between atoms: _473  and  _474
REMARK  201  A    between atoms: _473  and  _476
REMARK  202  A    between atoms: _479  and  _481
REMARK  203  A    between atoms: _481  and  _482
REMARK  204  A    between atoms: _484  and  _486
REMARK  205  A    between atoms: _486  and  _487
REMARK  206  A    between atoms: _486  and  _489
REMARK  207  A    between atoms: _489  and  _490
REMARK  208  A    between atoms: _493  and  _495
REMARK  209  A    between atoms: _495  and  _496
REMARK  210  A    between atoms: _495  and  _498
REMARK  211  A    between atoms: _498  and  _499
REMARK  212  A    between atoms: _499  and  _500
REMARK  213  A    between atoms: _500  and  _501
REMARK  214  A    between atoms: _501  and  _502
REMARK  215  A    between atoms: _506  and  _508
REMARK  216  A    between atoms: _508  and  _509
REMARK  217  A    between atoms: _508  and  _511
REMARK  218  A    between atoms: _514  and  _516
REMARK  219  A    between atoms: _516  and  _517
REMARK  220  A    between atoms: _516  and  _519
REMARK  221  A    between atoms: _519  and  _520
REMARK                            x       y       z     vdW  Elec       q    Type
REMARK                         _______ _______ _______ _____ _____    ______ ____
ROOT
ATOM      1  O   HOH     1      11.000  14.175  24.934  0.00  0.00    +0.000 OA
ENDROOT
TORSDOF 0
