REMARK  Name = ../refined-set-2016/1aaq/1aaq_pocket.pdb
REMARK  220 active torsions:
REMARK  status: ('A' for Active; 'I' for Inactive)
REMARK    1  A    between atoms: _1  and  _3
REMARK    2  A    between atoms: _3  and  _4
REMARK    3  A    between atoms: _3  and  _6
REMARK    4  A    between atoms: _6  and  _7
REMARK    5  A    between atoms: _7  and  _8
REMARK    6  A    between atoms: _8  and  _9
REMARK    7  A    between atoms: _18  and  _20
REMARK    8  A    between atoms: _20  and  _21
REMARK    9  A    between atoms: _20  and  _23
REMARK   10  A    between atoms: _23  and  _24
REMARK   11  A    between atoms: _27  and  _29
REMARK   12  A    between atoms: _29  and  _30
REMARK   13  A    between atoms: _29  and  _32
REMARK   14  A    between atoms: _32  and  _33
REMARK   15  A    between atoms: _36  and  _38
REMARK   16  A    between atoms: _38  and  _39
REMARK   17  A    between atoms: _38  and  _41
REMARK   18  A    between atoms: _41  and  _42
REMARK   19  A    between atoms: _45  and  _47
REMARK   20  A    between atoms: _47  and  _48
REMARK   21  A    between atoms: _47  and  _50
REMARK   22  A    between atoms: _50  and  _51
REMARK   23  A    between atoms: _54  and  _56
REMARK   24  A    between atoms: _56  and  _57
REMARK   25  A    between atoms: _59  and  _61
REMARK   26  A    between atoms: _61  and  _62
REMARK   27  A    between atoms: _65  and  _67
REMARK   28  A    between atoms: _67  and  _68
REMARK   29  A    between atoms: _67  and  _70
REMARK   30  A    between atoms: _70  and  _71
REMARK   31  A    between atoms: _74  and  _76
REMARK   32  A    between atoms: _76  and  _77
REMARK   33  A    between atoms: _76  and  _79
REMARK   34  A    between atoms: _79  and  _80
REMARK   35  A    between atoms: _83  and  _85
REMARK   36  A    between atoms: _85  and  _86
REMARK   37  A    between atoms: _85  and  _88
REMARK   38  A    between atoms: _88  and  _89
REMARK   39  A    between atoms: _92  and  _94
REMARK   40  A    between atoms: _94  and  _95
REMARK   41  A    between atoms: _94  and  _97
REMARK   42  A    between atoms: _100  and  _102
REMARK   43  A    between atoms: _102  and  _103
REMARK   44  A    between atoms: _102  and  _105
REMARK   45  A    between atoms: _106  and  _107
REMARK   46  A    between atoms: _107  and  _108
REMARK   47  A    between atoms: _108  and  _109
REMARK   48  A    between atoms: _113  and  _115
REMARK   49  A    between atoms: _115  and  _116
REMARK   50  A    between atoms: _115  and  _118
REMARK   51  A    between atoms: _118  and  _119
REMARK   52  A    between atoms: _119  and  _120
REMARK   53  A    between atoms: _122  and  _124
REMARK   54  A    between atoms: _124  and  _125
REMARK   55  A    between atoms: _124  and  _127
REMARK   56  A    between atoms: _127  and  _128
REMARK   57  A    between atoms: _131  and  _133
REMARK   58  A    between atoms: _133  and  _134
REMARK   59  A    between atoms: _136  and  _138
REMARK   60  A    between atoms: _138  and  _139
REMARK   61  A    between atoms: _141  and  _143
REMARK   62  A    between atoms: _143  and  _144
REMARK   63  A    between atoms: _143  and  _146
REMARK   64  A    between atoms: _146  and  _147
REMARK   65  A    between atoms: _150  and  _152
REMARK   66  A    between atoms: _152  and  _153
REMARK   67  A    between atoms: _155  and  _157
REMARK   68  A    between atoms: _157  and  _158
REMARK   69  A    between atoms: _160  and  _162
REMARK   70  A    between atoms: _162  and  _163
REMARK   71  A    between atoms: _162  and  _165
REMARK   72  A    between atoms: _165  and  _166
REMARK   73  A    between atoms: _172  and  _174
REMARK   74  A    between atoms: _174  and  _175
REMARK   75  A    between atoms: _174  and  _177
REMARK   76  A    between atoms: _177  and  _178
REMARK   77  A    between atoms: _181  and  _183
REMARK   78  A    between atoms: _183  and  _184
REMARK   79  A    between atoms: _183  and  _186
REMARK   80  A    between atoms: _186  and  _187
REMARK   81  A    between atoms: _190  and  _192
REMARK   82  A    between atoms: _192  and  _193
REMARK   83  A    between atoms: _192  and  _195
REMARK   84  A    between atoms: _195  and  _196
REMARK   85  A    between atoms: _200  and  _201
REMARK   86  A    between atoms: _206  and  _208
REMARK   87  A    between atoms: _208  and  _209
REMARK   88  A    between atoms: _208  and  _211
REMARK   89  A    between atoms: _214  and  _216
REMARK   90  A    between atoms: _216  and  _217
REMARK   91  A    between atoms: _216  and  _219
REMARK   92  A    between atoms: _219  and  _220
REMARK   93  A    between atoms: _223  and  _225
REMARK   94  A    between atoms: _225  and  _226
REMARK   95  A    between atoms: _225  and  _228
REMARK   96  A    between atoms: _228  and  _229
REMARK   97  A    between atoms: _232  and  _234
REMARK   98  A    between atoms: _234  and  _235
REMARK   99  A    between atoms: _237  and  _239
REMARK  100  A    between atoms: _239  and  _240
REMARK  101  A    between atoms: _239  and  _242
REMARK  102  A    between atoms: _242  and  _243
REMARK  103  A    between atoms: _243  and  _244
REMARK  104  A    between atoms: _244  and  _245
REMARK  105  A    between atoms: _254  and  _256
REMARK  106  A    between atoms: _256  and  _257
REMARK  107  A    between atoms: _256  and  _259
REMARK  108  A    between atoms: _259  and  _260
REMARK  109  A    between atoms: _265  and  _267
REMARK  110  A    between atoms: _267  and  _268
REMARK  111  A    between atoms: _267  and  _270
REMARK  112  A    between atoms: _270  and  _271
REMARK  113  A    between atoms: _271  and  _272
REMARK  114  A    between atoms: _272  and  _273
REMARK  115  A    between atoms: _282  and  _284
REMARK  116  A    between atoms: _284  and  _285
REMARK  117  A    between atoms: _284  and  _287
REMARK  118  A    between atoms: _287  and  _288
REMARK  119  A    between atoms: _291  and  _293
REMARK  120  A    between atoms: _293  and  _294
REMARK  121  A    between atoms: _293  and  _296
REMARK  122  A    between atoms: _296  and  _297
REMARK  123  A    between atoms: _300  and  _302
REMARK  124  A    between atoms: _302  and  _303
REMARK  125  A    between atoms: _302  and  _305
REMARK  126  A    between atoms: _305  and  _306
REMARK  127  A    between atoms: _309  and  _311
REMARK  128  A    between atoms: _311  and  _312
REMARK  129  A    between atoms: _311  and  _314
REMARK  130  A    between atoms: _314  and  _315
REMARK  131  A    between atoms: _318  and  _320
REMARK  132  A    between atoms: _320  and  _321
REMARK  133  A    between atoms: _323  and  _325
REMARK  134  A    between atoms: _325  and  _326
REMARK  135  A    between atoms: _329  and  _331
REMARK  136  A    between atoms: _331  and  _332
REMARK  137  A    between atoms: _331  and  _334
REMARK  138  A    between atoms: _334  and  _335
REMARK  139  A    between atoms: _338  and  _340
REMARK  140  A    between atoms: _340  and  _341
REMARK  141  A    between atoms: _340  and  _343
REMARK  142  A    between atoms: _343  and  _344
REMARK  143  A    between atoms: _347  and  _349
REMARK  144  A    between atoms: _349  and  _350
REMARK  145  A    between atoms: _349  and  _352
REMARK  146  A    between atoms: _352  and  _353
REMARK  147  A    between atoms: _356  and  _358
REMARK  148  A    between atoms: _358  and  _359
REMARK  149  A    between atoms: _358  and  _361
REMARK  150  A    between atoms: _364  and  _366
REMARK  151  A    between atoms: _366  and  _367
REMARK  152  A    between atoms: _366  and  _369
REMARK  153  A    between atoms: _369  and  _370
REMARK  154  A    between atoms: _370  and  _371
REMARK  155  A    between atoms: _371  and  _372
REMARK  156  A    between atoms: _372  and  _373
REMARK  157  A    between atoms: _377  and  _379
REMARK  158  A    between atoms: _379  and  _380
REMARK  159  A    between atoms: _379  and  _382
REMARK  160  A    between atoms: _382  and  _383
REMARK  161  A    between atoms: _383  and  _384
REMARK  162  A    between atoms: _386  and  _388
REMARK  163  A    between atoms: _388  and  _389
REMARK  164  A    between atoms: _388  and  _391
REMARK  165  A    between atoms: _391  and  _392
REMARK  166  A    between atoms: _395  and  _397
REMARK  167  A    between atoms: _397  and  _398
REMARK  168  A    between atoms: _400  and  _402
REMARK  169  A    between atoms: _402  and  _403
REMARK  170  A    between atoms: _405  and  _407
REMARK  171  A    between atoms: _407  and  _408
REMARK  172  A    between atoms: _407  and  _410
REMARK  173  A    between atoms: _410  and  _411
REMARK  174  A    between atoms: _414  and  _416
REMARK  175  A    between atoms: _416  and  _417
REMARK  176  A    between atoms: _419  and  _421
REMARK  177  A    between atoms: _421  and  _422
REMARK  178  A    between atoms: _424  and  _426
REMARK  179  A    between atoms: _426  and  _427
REMARK  180  A    between atoms: _426  and  _429
REMARK  181  A    between atoms: _429  and  _430
REMARK  182  A    between atoms: _436  and  _438
REMARK  183  A    between atoms: _438  and  _439
REMARK  184  A    between atoms: _438  and  _441
REMARK  185  A    between atoms: _441  and  _442
REMARK  186  A    between atoms: _445  and  _447
REMARK  187  A    between atoms: _447  and  _448
REMARK  188  A    between atoms: _447  and  _450
REMARK  189  A    between atoms: _453  and  _455
REMARK  190  A    between atoms: _455  and  _456
REMARK  191  A    between atoms: _455  and  _458
REMARK  192  A    between atoms: _458  and  _459
REMARK  193  A    between atoms: _462  and  _464
REMARK  194  A    between atoms: _464  and  _465
REMARK  195  A    between atoms: _464  and  _467
REMARK  196  A    between atoms: _467  and  _468
REMARK  197  A    between atoms: _472  and  _473
REMARK  198  A    between atoms: _478  and  _480
REMARK  199  A    between atoms: _480  and  _481
REMARK  200  A    between atoms: _480  and  _483
REMARK  201  A    between atoms: _486  and  _488
REMARK  202  A    between atoms: _488  and  _489
REMARK  203  A    between atoms: _488  and  _491
REMARK  204  A    between atoms: _491  and  _492
REMARK  205  A    between atoms: _497  and  _499
REMARK  206  A    between atoms: _499  and  _500
REMARK  207  A    between atoms: _499  and  _502
REMARK  208  A    between atoms: _502  and  _503
REMARK  209  A    between atoms: _506  and  _508
REMARK  210  A    between atoms: _508  and  _509
REMARK  211  A    between atoms: _508  and  _511
REMARK  212  A    between atoms: _511  and  _512
REMARK  213  A    between atoms: _515  and  _517
REMARK  214  A    between atoms: _517  and  _518
REMARK  215  A    between atoms: _520  and  _522
REMARK  216  A    between atoms: _522  and  _523
REMARK  217  A    between atoms: _522  and  _525
REMARK  218  A    between atoms: _525  and  _526
REMARK  219  A    between atoms: _526  and  _527
REMARK  220  A    between atoms: _527  and  _528
REMARK                            x       y       z     vdW  Elec       q    Type
REMARK                         _______ _______ _______ _____ _____    ______ ____
ROOT
ATOM      1  NE  ARG A   1     -18.776  15.566   6.976  0.00  0.00    -0.265 N 
ATOM      2  HE  ARG A   1     -18.531  15.904   7.928  0.00  0.00    +0.259 HD
ATOM      3  CZ  ARG A   1     -18.302  14.360   6.588  0.00  0.00    +0.342 C 
ATOM      4  NH2 ARG A   1     -17.561  13.683   7.457  0.00  0.00    -0.292 N 
ATOM      5 HH21 ARG A   1     -17.365  14.084   8.396  0.00  0.00    +0.255 HD
ATOM      6 HH22 ARG A   1     -17.177  12.752   7.198  0.00  0.00    +0.255 HD
ATOM      7  NH1 ARG A   1     -18.554  13.804   5.391  0.00  0.00    -0.292 N 
ATOM      8 HH11 ARG A   1     -18.157  12.872   5.157  0.00  0.00    +0.255 HD
ATOM      9 HH12 ARG A   1     -19.146  14.306   4.699  0.00  0.00    +0.255 HD
ENDROOT
BRANCH   1  10
ATOM     10  CD  ARG A   1     -19.615  16.426   6.135  0.00  0.00    +0.174 C 
BRANCH  10  11
ATOM     11  CG  ARG A   1     -19.890  17.831   6.683  0.00  0.00    +0.044 C 
BRANCH  11  12
ATOM     12  CB  ARG A   1     -20.975  18.540   5.880  0.00  0.00    +0.023 C 
BRANCH  12  13
ATOM     13  CA  ARG A   1     -21.122  19.987   6.279  0.00  0.00    +0.102 C 
BRANCH  13  14
ATOM     14  N   ARG A   1     -21.851  20.122   7.520  0.00  0.00    -0.244 NA
ATOM     15  H   ARG A   1     -22.201  19.271   8.005  0.00  0.00    +0.141 HD
ENDBRANCH  13  14
BRANCH  13  16
ATOM     16  C   ARG A   1     -21.921  20.685   5.204  0.00  0.00    +0.199 C 
ATOM     17  O   ARG A   1     -23.130  20.409   5.229  0.00  0.00    -0.219 OA
ENDBRANCH  13  16
ENDBRANCH  12  13
ENDBRANCH  11  12
ENDBRANCH  10  11
ENDBRANCH   1  10
TORSDOF 6
REMARK  Name = ../refined-set-2016/1aaq/1aaq_pocket.pdb
REMARK  220 active torsions:
REMARK  status: ('A' for Active; 'I' for Inactive)
REMARK    1  A    between atoms: _1  and  _3
REMARK    2  A    between atoms: _3  and  _4
REMARK    3  A    between atoms: _3  and  _6
REMARK    4  A    between atoms: _6  and  _7
REMARK    5  A    between atoms: _7  and  _8
REMARK    6  A    between atoms: _8  and  _9
REMARK    7  A    between atoms: _18  and  _20
REMARK    8  A    between atoms: _20  and  _21
REMARK    9  A    between atoms: _20  and  _23
REMARK   10  A    between atoms: _23  and  _24
REMARK   11  A    between atoms: _27  and  _29
REMARK   12  A    between atoms: _29  and  _30
REMARK   13  A    between atoms: _29  and  _32
REMARK   14  A    between atoms: _32  and  _33
REMARK   15  A    between atoms: _36  and  _38
REMARK   16  A    between atoms: _38  and  _39
REMARK   17  A    between atoms: _38  and  _41
REMARK   18  A    between atoms: _41  and  _42
REMARK   19  A    between atoms: _45  and  _47
REMARK   20  A    between atoms: _47  and  _48
REMARK   21  A    between atoms: _47  and  _50
REMARK   22  A    between atoms: _50  and  _51
REMARK   23  A    between atoms: _54  and  _56
REMARK   24  A    between atoms: _56  and  _57
REMARK   25  A    between atoms: _59  and  _61
REMARK   26  A    between atoms: _61  and  _62
REMARK   27  A    between atoms: _65  and  _67
REMARK   28  A    between atoms: _67  and  _68
REMARK   29  A    between atoms: _67  and  _70
REMARK   30  A    between atoms: _70  and  _71
REMARK   31  A    between atoms: _74  and  _76
REMARK   32  A    between atoms: _76  and  _77
REMARK   33  A    between atoms: _76  and  _79
REMARK   34  A    between atoms: _79  and  _80
REMARK   35  A    between atoms: _83  and  _85
REMARK   36  A    between atoms: _85  and  _86
REMARK   37  A    between atoms: _85  and  _88
REMARK   38  A    between atoms: _88  and  _89
REMARK   39  A    between atoms: _92  and  _94
REMARK   40  A    between atoms: _94  and  _95
REMARK   41  A    between atoms: _94  and  _97
REMARK   42  A    between atoms: _100  and  _102
REMARK   43  A    between atoms: _102  and  _103
REMARK   44  A    between atoms: _102  and  _105
REMARK   45  A    between atoms: _106  and  _107
REMARK   46  A    between atoms: _107  and  _108
REMARK   47  A    between atoms: _108  and  _109
REMARK   48  A    between atoms: _113  and  _115
REMARK   49  A    between atoms: _115  and  _116
REMARK   50  A    between atoms: _115  and  _118
REMARK   51  A    between atoms: _118  and  _119
REMARK   52  A    between atoms: _119  and  _120
REMARK   53  A    between atoms: _122  and  _124
REMARK   54  A    between atoms: _124  and  _125
REMARK   55  A    between atoms: _124  and  _127
REMARK   56  A    between atoms: _127  and  _128
REMARK   57  A    between atoms: _131  and  _133
REMARK   58  A    between atoms: _133  and  _134
REMARK   59  A    between atoms: _136  and  _138
REMARK   60  A    between atoms: _138  and  _139
REMARK   61  A    between atoms: _141  and  _143
REMARK   62  A    between atoms: _143  and  _144
REMARK   63  A    between atoms: _143  and  _146
REMARK   64  A    between atoms: _146  and  _147
REMARK   65  A    between atoms: _150  and  _152
REMARK   66  A    between atoms: _152  and  _153
REMARK   67  A    between atoms: _155  and  _157
REMARK   68  A    between atoms: _157  and  _158
REMARK   69  A    between atoms: _160  and  _162
REMARK   70  A    between atoms: _162  and  _163
REMARK   71  A    between atoms: _162  and  _165
REMARK   72  A    between atoms: _165  and  _166
REMARK   73  A    between atoms: _172  and  _174
REMARK   74  A    between atoms: _174  and  _175
REMARK   75  A    between atoms: _174  and  _177
REMARK   76  A    between atoms: _177  and  _178
REMARK   77  A    between atoms: _181  and  _183
REMARK   78  A    between atoms: _183  and  _184
REMARK   79  A    between atoms: _183  and  _186
REMARK   80  A    between atoms: _186  and  _187
REMARK   81  A    between atoms: _190  and  _192
REMARK   82  A    between atoms: _192  and  _193
REMARK   83  A    between atoms: _192  and  _195
REMARK   84  A    between atoms: _195  and  _196
REMARK   85  A    between atoms: _200  and  _201
REMARK   86  A    between atoms: _206  and  _208
REMARK   87  A    between atoms: _208  and  _209
REMARK   88  A    between atoms: _208  and  _211
REMARK   89  A    between atoms: _214  and  _216
REMARK   90  A    between atoms: _216  and  _217
REMARK   91  A    between atoms: _216  and  _219
REMARK   92  A    between atoms: _219  and  _220
REMARK   93  A    between atoms: _223  and  _225
REMARK   94  A    between atoms: _225  and  _226
REMARK   95  A    between atoms: _225  and  _228
REMARK   96  A    between atoms: _228  and  _229
REMARK   97  A    between atoms: _232  and  _234
REMARK   98  A    between atoms: _234  and  _235
REMARK   99  A    between atoms: _237  and  _239
REMARK  100  A    between atoms: _239  and  _240
REMARK  101  A    between atoms: _239  and  _242
REMARK  102  A    between atoms: _242  and  _243
REMARK  103  A    between atoms: _243  and  _244
REMARK  104  A    between atoms: _244  and  _245
REMARK  105  A    between atoms: _254  and  _256
REMARK  106  A    between atoms: _256  and  _257
REMARK  107  A    between atoms: _256  and  _259
REMARK  108  A    between atoms: _259  and  _260
REMARK  109  A    between atoms: _265  and  _267
REMARK  110  A    between atoms: _267  and  _268
REMARK  111  A    between atoms: _267  and  _270
REMARK  112  A    between atoms: _270  and  _271
REMARK  113  A    between atoms: _271  and  _272
REMARK  114  A    between atoms: _272  and  _273
REMARK  115  A    between atoms: _282  and  _284
REMARK  116  A    between atoms: _284  and  _285
REMARK  117  A    between atoms: _284  and  _287
REMARK  118  A    between atoms: _287  and  _288
REMARK  119  A    between atoms: _291  and  _293
REMARK  120  A    between atoms: _293  and  _294
REMARK  121  A    between atoms: _293  and  _296
REMARK  122  A    between atoms: _296  and  _297
REMARK  123  A    between atoms: _300  and  _302
REMARK  124  A    between atoms: _302  and  _303
REMARK  125  A    between atoms: _302  and  _305
REMARK  126  A    between atoms: _305  and  _306
REMARK  127  A    between atoms: _309  and  _311
REMARK  128  A    between atoms: _311  and  _312
REMARK  129  A    between atoms: _311  and  _314
REMARK  130  A    between atoms: _314  and  _315
REMARK  131  A    between atoms: _318  and  _320
REMARK  132  A    between atoms: _320  and  _321
REMARK  133  A    between atoms: _323  and  _325
REMARK  134  A    between atoms: _325  and  _326
REMARK  135  A    between atoms: _329  and  _331
REMARK  136  A    between atoms: _331  and  _332
REMARK  137  A    between atoms: _331  and  _334
REMARK  138  A    between atoms: _334  and  _335
REMARK  139  A    between atoms: _338  and  _340
REMARK  140  A    between atoms: _340  and  _341
REMARK  141  A    between atoms: _340  and  _343
REMARK  142  A    between atoms: _343  and  _344
REMARK  143  A    between atoms: _347  and  _349
REMARK  144  A    between atoms: _349  and  _350
REMARK  145  A    between atoms: _349  and  _352
REMARK  146  A    between atoms: _352  and  _353
REMARK  147  A    between atoms: _356  and  _358
REMARK  148  A    between atoms: _358  and  _359
REMARK  149  A    between atoms: _358  and  _361
REMARK  150  A    between atoms: _364  and  _366
REMARK  151  A    between atoms: _366  and  _367
REMARK  152  A    between atoms: _366  and  _369
REMARK  153  A    between atoms: _369  and  _370
REMARK  154  A    between atoms: _370  and  _371
REMARK  155  A    between atoms: _371  and  _372
REMARK  156  A    between atoms: _372  and  _373
REMARK  157  A    between atoms: _377  and  _379
REMARK  158  A    between atoms: _379  and  _380
REMARK  159  A    between atoms: _379  and  _382
REMARK  160  A    between atoms: _382  and  _383
REMARK  161  A    between atoms: _383  and  _384
REMARK  162  A    between atoms: _386  and  _388
REMARK  163  A    between atoms: _388  and  _389
REMARK  164  A    between atoms: _388  and  _391
REMARK  165  A    between atoms: _391  and  _392
REMARK  166  A    between atoms: _395  and  _397
REMARK  167  A    between atoms: _397  and  _398
REMARK  168  A    between atoms: _400  and  _402
REMARK  169  A    between atoms: _402  and  _403
REMARK  170  A    between atoms: _405  and  _407
REMARK  171  A    between atoms: _407  and  _408
REMARK  172  A    between atoms: _407  and  _410
REMARK  173  A    between atoms: _410  and  _411
REMARK  174  A    between atoms: _414  and  _416
REMARK  175  A    between atoms: _416  and  _417
REMARK  176  A    between atoms: _419  and  _421
REMARK  177  A    between atoms: _421  and  _422
REMARK  178  A    between atoms: _424  and  _426
REMARK  179  A    between atoms: _426  and  _427
REMARK  180  A    between atoms: _426  and  _429
REMARK  181  A    between atoms: _429  and  _430
REMARK  182  A    between atoms: _436  and  _438
REMARK  183  A    between atoms: _438  and  _439
REMARK  184  A    between atoms: _438  and  _441
REMARK  185  A    between atoms: _441  and  _442
REMARK  186  A    between atoms: _445  and  _447
REMARK  187  A    between atoms: _447  and  _448
REMARK  188  A    between atoms: _447  and  _450
REMARK  189  A    between atoms: _453  and  _455
REMARK  190  A    between atoms: _455  and  _456
REMARK  191  A    between atoms: _455  and  _458
REMARK  192  A    between atoms: _458  and  _459
REMARK  193  A    between atoms: _462  and  _464
REMARK  194  A    between atoms: _464  and  _465
REMARK  195  A    between atoms: _464  and  _467
REMARK  196  A    between atoms: _467  and  _468
REMARK  197  A    between atoms: _472  and  _473
REMARK  198  A    between atoms: _478  and  _480
REMARK  199  A    between atoms: _480  and  _481
REMARK  200  A    between atoms: _480  and  _483
REMARK  201  A    between atoms: _486  and  _488
REMARK  202  A    between atoms: _488  and  _489
REMARK  203  A    between atoms: _488  and  _491
REMARK  204  A    between atoms: _491  and  _492
REMARK  205  A    between atoms: _497  and  _499
REMARK  206  A    between atoms: _499  and  _500
REMARK  207  A    between atoms: _499  and  _502
REMARK  208  A    between atoms: _502  and  _503
REMARK  209  A    between atoms: _506  and  _508
REMARK  210  A    between atoms: _508  and  _509
REMARK  211  A    between atoms: _508  and  _511
REMARK  212  A    between atoms: _511  and  _512
REMARK  213  A    between atoms: _515  and  _517
REMARK  214  A    between atoms: _517  and  _518
REMARK  215  A    between atoms: _520  and  _522
REMARK  216  A    between atoms: _522  and  _523
REMARK  217  A    between atoms: _522  and  _525
REMARK  218  A    between atoms: _525  and  _526
REMARK  219  A    between atoms: _526  and  _527
REMARK  220  A    between atoms: _527  and  _528
REMARK                            x       y       z     vdW  Elec       q    Type
REMARK                         _______ _______ _______ _____ _____    ______ ____
ROOT
ATOM      1  C   GLY A   5      -9.642  21.803  -1.878  0.00  0.00    +0.243 C 
ATOM      2  O   GLY A   5      -8.726  20.992  -1.728  0.00  0.00    -0.273 OA
ATOM      3  N   ALA A   6     -10.516  21.643  -2.884  0.00  0.00    -0.297 N 
ATOM      4  H   ALA A   6     -11.333  22.285  -2.932  0.00  0.00    +0.150 HD
ENDROOT
BRANCH   3   5
ATOM      5  CA  ALA A   6     -10.383  20.615  -3.916  0.00  0.00    +0.149 C 
ATOM      6  CB  ALA A   6     -11.544  19.642  -3.865  0.00  0.00    +0.031 C 
BRANCH   5   7
ATOM      7  C   ALA A   6     -10.396  21.329  -5.254  0.00  0.00    +0.241 C 
ATOM      8  O   ALA A   6     -11.336  22.008  -5.628  0.00  0.00    -0.273 OA
ATOM      9  N   ASP A   7      -9.304  21.234  -5.973  0.00  0.00    -0.297 N 
ATOM     10  H   ASP A   7      -8.490  20.710  -5.593  0.00  0.00    +0.150 HD
BRANCH   9  11
ATOM     11  CA  ASP A   7      -9.203  21.846  -7.296  0.00  0.00    +0.160 C 
BRANCH  11  12
ATOM     12  C   ASP A   7     -10.079  21.234  -8.386  0.00  0.00    +0.241 C 
ATOM     13  N   ASP A   8     -10.273  19.876  -8.327  0.00  0.00    -0.297 N 
ATOM     14  H   ASP A   8      -9.851  19.384  -7.514  0.00  0.00    +0.150 HD
ATOM     15  O   ASP A   7     -10.586  22.017  -9.214  0.00  0.00    -0.273 OA
BRANCH  13  16
ATOM     16  CA  ASP A   8     -11.013  19.037  -9.289  0.00  0.00    +0.160 C 
BRANCH  16  17
ATOM     17  C   ASP A   8     -12.302  18.491  -8.690  0.00  0.00    +0.241 C 
ATOM     18  O   ASP A   8     -12.347  18.284  -7.484  0.00  0.00    -0.273 OA
ATOM     19  N   THR A   9     -13.387  18.287  -9.447  0.00  0.00    -0.295 N 
ATOM     20  H   THR A   9     -13.353  18.547 -10.453  0.00  0.00    +0.150 HD
BRANCH  19  21
ATOM     21  CA  THR A   9     -14.618  17.711  -8.907  0.00  0.00    +0.176 C 
BRANCH  21  22
ATOM     22  C   THR A   9     -14.528  16.176  -8.879  0.00  0.00    +0.243 C 
ATOM     23  N   VAL A  10     -14.659  15.371  -7.820  0.00  0.00    -0.298 N 
ATOM     24  H   VAL A  10     -14.969  15.791  -6.920  0.00  0.00    +0.150 HD
ATOM     25  O   THR A   9     -14.378  15.605  -9.948  0.00  0.00    -0.273 OA
BRANCH  23  26
ATOM     26  CA  VAL A  10     -14.391  13.933  -7.855  0.00  0.00    +0.137 C 
BRANCH  26  27
ATOM     27  CB  VAL A  10     -13.315  13.426  -6.860  0.00  0.00    +0.026 C 
ATOM     28  CG2 VAL A  10     -12.035  14.156  -7.024  0.00  0.00    +0.002 C 
ATOM     29  CG1 VAL A  10     -13.101  11.950  -7.090  0.00  0.00    +0.002 C 
ENDBRANCH  26  27
BRANCH  26  30
ATOM     30  C   VAL A  10     -15.694  13.352  -7.384  0.00  0.00    +0.227 C 
ATOM     31  O   VAL A  10     -16.126  13.780  -6.310  0.00  0.00    -0.286 OA
ENDBRANCH  26  30
ENDBRANCH  23  26
ENDBRANCH  21  22
BRANCH  21  32
ATOM     32  CB  THR A   9     -15.661  18.247  -9.818  0.00  0.00    +0.137 C 
ATOM     33  CG2 THR A   9     -16.987  17.598  -9.655  0.00  0.00    +0.034 C 
BRANCH  32  34
ATOM     34  OG1 THR A   9     -15.670  19.650  -9.560  0.00  0.00    -0.382 OA
ATOM     35  HG1 THR A   9     -14.776  20.027  -9.758  0.00  0.00    +0.210 HD
ENDBRANCH  32  34
ENDBRANCH  21  32
ENDBRANCH  19  21
ENDBRANCH  16  17
BRANCH  16  36
ATOM     36  CB  ASP A   8     -10.162  17.853  -9.720  0.00  0.00    +0.143 C 
BRANCH  36  37
ATOM     37  CG  ASP A   8      -8.768  18.248 -10.191  0.00  0.00    +0.367 C 
ATOM     38  OD2 ASP A   8      -7.803  17.971  -9.477  0.00  0.00    -0.246 OA
ATOM     39  OD1 ASP A   8      -8.638  18.848 -11.258  0.00  0.00    -0.246 OA
ENDBRANCH  36  37
ENDBRANCH  16  36
ENDBRANCH  13  16
ENDBRANCH  11  12
BRANCH  11  40
ATOM     40  CB  ASP A   7      -7.843  21.765  -7.816  0.00  0.00    +0.143 C 
BRANCH  40  41
ATOM     41  CG  ASP A   7      -6.837  22.005  -6.726  0.00  0.00    +0.367 C 
ATOM     42  OD2 ASP A   7      -7.027  22.889  -5.885  0.00  0.00    -0.246 OA
ATOM     43  OD1 ASP A   7      -5.879  21.243  -6.717  0.00  0.00    -0.246 OA
ENDBRANCH  40  41
ENDBRANCH  11  40
ENDBRANCH   9  11
ENDBRANCH   5   7
ENDBRANCH   3   5
BRANCH   1  44
ATOM     44  CA  GLY A   5      -9.816  22.909  -0.869  0.00  0.00    +0.176 C 
BRANCH  44  46
ATOM     45  C   THR A   4     -11.521  24.496  -1.476  0.00  0.00    +0.243 C 
ATOM     46  N   GLY A   5     -11.191  23.416  -0.778  0.00  0.00    -0.295 N 
ATOM     47  H   GLY A   5     -11.893  22.938  -0.178  0.00  0.00    +0.150 HD
ATOM     48  O   THR A   4     -10.589  25.004  -2.141  0.00  0.00    -0.273 OA
BRANCH  45  49
ATOM     49  CA  THR A   4     -12.963  25.032  -1.505  0.00  0.00    +0.176 C 
BRANCH  49  51
ATOM     50  C   ASP A   3     -14.312  22.962  -1.729  0.00  0.00    +0.241 C 
ATOM     51  N   THR A   4     -13.936  24.045  -1.028  0.00  0.00    -0.295 N 
ATOM     52  H   THR A   4     -14.361  24.192  -0.090  0.00  0.00    +0.150 HD
ATOM     53  O   ASP A   3     -13.841  22.828  -2.855  0.00  0.00    -0.273 OA
BRANCH  50  54
ATOM     54  CA  ASP A   3     -15.240  21.879  -1.191  0.00  0.00    +0.160 C 
BRANCH  54  57
ATOM     55  C   LEU A   2     -17.624  22.213  -1.069  0.00  0.00    +0.241 C 
ATOM     56  O   LEU A   2     -17.525  22.638   0.072  0.00  0.00    -0.273 OA
ATOM     57  N   ASP A   3     -16.539  21.941  -1.758  0.00  0.00    -0.297 N 
ATOM     58  H   ASP A   3     -16.638  21.761  -2.777  0.00  0.00    +0.150 HD
BRANCH  55  59
ATOM     59  CA  LEU A   2     -18.987  22.048  -1.726  0.00  0.00    +0.149 C 
BRANCH  59  61
ATOM     60  C   LEU A   1     -19.434  19.731  -1.234  0.00  0.00    +0.238 C 
ATOM     61  N   LEU A   2     -19.698  21.021  -1.006  0.00  0.00    -0.297 N 
ATOM     62  H   LEU A   2     -20.420  21.285  -0.306  0.00  0.00    +0.150 HD
ATOM     63  O   LEU A   1     -18.568  19.446  -2.064  0.00  0.00    -0.274 OA
BRANCH  60  64
ATOM     64  CA  LEU A   1     -20.092  18.541  -0.529  0.00  0.00    +0.145 C 
BRANCH  64  65
ATOM     65  N   LEU A   1     -20.632  17.579  -1.488  0.00  0.00    -0.238 NA
ATOM     66  H   LEU A   1     -20.024  16.774  -1.739  0.00  0.00    +0.142 HD
ENDBRANCH  64  65
BRANCH  64  67
ATOM     67  CB  LEU A   1     -19.121  17.716   0.265  0.00  0.00    +0.026 C 
BRANCH  67  68
ATOM     68  CG  LEU A   1     -18.275  18.143   1.451  0.00  0.00    +0.002 C 
ATOM     69  CD2 LEU A   1     -19.062  17.766   2.647  0.00  0.00    +0.000 C 
ATOM     70  CD1 LEU A   1     -16.871  17.497   1.442  0.00  0.00    +0.000 C 
ENDBRANCH  67  68
ENDBRANCH  64  67
ENDBRANCH  60  64
ENDBRANCH  59  61
BRANCH  59  71
ATOM     71  CB  LEU A   2     -19.694  23.304  -1.637  0.00  0.00    +0.029 C 
BRANCH  71  72
ATOM     72  CG  LEU A   2     -21.128  23.234  -2.027  0.00  0.00    +0.002 C 
ATOM     73  CD2 LEU A   2     -21.887  24.452  -1.499  0.00  0.00    +0.000 C 
ATOM     74  CD1 LEU A   2     -21.235  23.225  -3.520  0.00  0.00    +0.000 C 
ENDBRANCH  71  72
ENDBRANCH  59  71
ENDBRANCH  55  59
ENDBRANCH  54  57
BRANCH  54  75
ATOM     75  CB  ASP A   3     -14.712  20.533  -1.530  0.00  0.00    +0.143 C 
BRANCH  75  76
ATOM     76  CG  ASP A   3     -13.579  20.044  -0.643  0.00  0.00    +0.367 C 
ATOM     77  OD2 ASP A   3     -12.956  20.786   0.142  0.00  0.00    -0.246 OA
ATOM     78  OD1 ASP A   3     -13.300  18.848  -0.754  0.00  0.00    -0.246 OA
ENDBRANCH  75  76
ENDBRANCH  54  75
ENDBRANCH  50  54
ENDBRANCH  49  51
BRANCH  49  79
ATOM     79  CB  THR A   4     -13.140  26.272  -0.652  0.00  0.00    +0.137 C 
ATOM     80  CG2 THR A   4     -14.415  27.018  -0.916  0.00  0.00    +0.034 C 
BRANCH  79  81
ATOM     81  OG1 THR A   4     -13.259  25.840   0.686  0.00  0.00    -0.382 OA
ATOM     82  HG1 THR A   4     -14.044  25.242   0.770  0.00  0.00    +0.210 HD
ENDBRANCH  79  81
ENDBRANCH  49  79
ENDBRANCH  45  49
ENDBRANCH  44  46
ENDBRANCH   1  44
TORSDOF 35
REMARK  Name = ../refined-set-2016/1aaq/1aaq_pocket.pdb
REMARK  220 active torsions:
REMARK  status: ('A' for Active; 'I' for Inactive)
REMARK    1  A    between atoms: _1  and  _3
REMARK    2  A    between atoms: _3  and  _4
REMARK    3  A    between atoms: _3  and  _6
REMARK    4  A    between atoms: _6  and  _7
REMARK    5  A    between atoms: _7  and  _8
REMARK    6  A    between atoms: _8  and  _9
REMARK    7  A    between atoms: _18  and  _20
REMARK    8  A    between atoms: _20  and  _21
REMARK    9  A    between atoms: _20  and  _23
REMARK   10  A    between atoms: _23  and  _24
REMARK   11  A    between atoms: _27  and  _29
REMARK   12  A    between atoms: _29  and  _30
REMARK   13  A    between atoms: _29  and  _32
REMARK   14  A    between atoms: _32  and  _33
REMARK   15  A    between atoms: _36  and  _38
REMARK   16  A    between atoms: _38  and  _39
REMARK   17  A    between atoms: _38  and  _41
REMARK   18  A    between atoms: _41  and  _42
REMARK   19  A    between atoms: _45  and  _47
REMARK   20  A    between atoms: _47  and  _48
REMARK   21  A    between atoms: _47  and  _50
REMARK   22  A    between atoms: _50  and  _51
REMARK   23  A    between atoms: _54  and  _56
REMARK   24  A    between atoms: _56  and  _57
REMARK   25  A    between atoms: _59  and  _61
REMARK   26  A    between atoms: _61  and  _62
REMARK   27  A    between atoms: _65  and  _67
REMARK   28  A    between atoms: _67  and  _68
REMARK   29  A    between atoms: _67  and  _70
REMARK   30  A    between atoms: _70  and  _71
REMARK   31  A    between atoms: _74  and  _76
REMARK   32  A    between atoms: _76  and  _77
REMARK   33  A    between atoms: _76  and  _79
REMARK   34  A    between atoms: _79  and  _80
REMARK   35  A    between atoms: _83  and  _85
REMARK   36  A    between atoms: _85  and  _86
REMARK   37  A    between atoms: _85  and  _88
REMARK   38  A    between atoms: _88  and  _89
REMARK   39  A    between atoms: _92  and  _94
REMARK   40  A    between atoms: _94  and  _95
REMARK   41  A    between atoms: _94  and  _97
REMARK   42  A    between atoms: _100  and  _102
REMARK   43  A    between atoms: _102  and  _103
REMARK   44  A    between atoms: _102  and  _105
REMARK   45  A    between atoms: _106  and  _107
REMARK   46  A    between atoms: _107  and  _108
REMARK   47  A    between atoms: _108  and  _109
REMARK   48  A    between atoms: _113  and  _115
REMARK   49  A    between atoms: _115  and  _116
REMARK   50  A    between atoms: _115  and  _118
REMARK   51  A    between atoms: _118  and  _119
REMARK   52  A    between atoms: _119  and  _120
REMARK   53  A    between atoms: _122  and  _124
REMARK   54  A    between atoms: _124  and  _125
REMARK   55  A    between atoms: _124  and  _127
REMARK   56  A    between atoms: _127  and  _128
REMARK   57  A    between atoms: _131  and  _133
REMARK   58  A    between atoms: _133  and  _134
REMARK   59  A    between atoms: _136  and  _138
REMARK   60  A    between atoms: _138  and  _139
REMARK   61  A    between atoms: _141  and  _143
REMARK   62  A    between atoms: _143  and  _144
REMARK   63  A    between atoms: _143  and  _146
REMARK   64  A    between atoms: _146  and  _147
REMARK   65  A    between atoms: _150  and  _152
REMARK   66  A    between atoms: _152  and  _153
REMARK   67  A    between atoms: _155  and  _157
REMARK   68  A    between atoms: _157  and  _158
REMARK   69  A    between atoms: _160  and  _162
REMARK   70  A    between atoms: _162  and  _163
REMARK   71  A    between atoms: _162  and  _165
REMARK   72  A    between atoms: _165  and  _166
REMARK   73  A    between atoms: _172  and  _174
REMARK   74  A    between atoms: _174  and  _175
REMARK   75  A    between atoms: _174  and  _177
REMARK   76  A    between atoms: _177  and  _178
REMARK   77  A    between atoms: _181  and  _183
REMARK   78  A    between atoms: _183  and  _184
REMARK   79  A    between atoms: _183  and  _186
REMARK   80  A    between atoms: _186  and  _187
REMARK   81  A    between atoms: _190  and  _192
REMARK   82  A    between atoms: _192  and  _193
REMARK   83  A    between atoms: _192  and  _195
REMARK   84  A    between atoms: _195  and  _196
REMARK   85  A    between atoms: _200  and  _201
REMARK   86  A    between atoms: _206  and  _208
REMARK   87  A    between atoms: _208  and  _209
REMARK   88  A    between atoms: _208  and  _211
REMARK   89  A    between atoms: _214  and  _216
REMARK   90  A    between atoms: _216  and  _217
REMARK   91  A    between atoms: _216  and  _219
REMARK   92  A    between atoms: _219  and  _220
REMARK   93  A    between atoms: _223  and  _225
REMARK   94  A    between atoms: _225  and  _226
REMARK   95  A    between atoms: _225  and  _228
REMARK   96  A    between atoms: _228  and  _229
REMARK   97  A    between atoms: _232  and  _234
REMARK   98  A    between atoms: _234  and  _235
REMARK   99  A    between atoms: _237  and  _239
REMARK  100  A    between atoms: _239  and  _240
REMARK  101  A    between atoms: _239  and  _242
REMARK  102  A    between atoms: _242  and  _243
REMARK  103  A    between atoms: _243  and  _244
REMARK  104  A    between atoms: _244  and  _245
REMARK  105  A    between atoms: _254  and  _256
REMARK  106  A    between atoms: _256  and  _257
REMARK  107  A    between atoms: _256  and  _259
REMARK  108  A    between atoms: _259  and  _260
REMARK  109  A    between atoms: _265  and  _267
REMARK  110  A    between atoms: _267  and  _268
REMARK  111  A    between atoms: _267  and  _270
REMARK  112  A    between atoms: _270  and  _271
REMARK  113  A    between atoms: _271  and  _272
REMARK  114  A    between atoms: _272  and  _273
REMARK  115  A    between atoms: _282  and  _284
REMARK  116  A    between atoms: _284  and  _285
REMARK  117  A    between atoms: _284  and  _287
REMARK  118  A    between atoms: _287  and  _288
REMARK  119  A    between atoms: _291  and  _293
REMARK  120  A    between atoms: _293  and  _294
REMARK  121  A    between atoms: _293  and  _296
REMARK  122  A    between atoms: _296  and  _297
REMARK  123  A    between atoms: _300  and  _302
REMARK  124  A    between atoms: _302  and  _303
REMARK  125  A    between atoms: _302  and  _305
REMARK  126  A    between atoms: _305  and  _306
REMARK  127  A    between atoms: _309  and  _311
REMARK  128  A    between atoms: _311  and  _312
REMARK  129  A    between atoms: _311  and  _314
REMARK  130  A    between atoms: _314  and  _315
REMARK  131  A    between atoms: _318  and  _320
REMARK  132  A    between atoms: _320  and  _321
REMARK  133  A    between atoms: _323  and  _325
REMARK  134  A    between atoms: _325  and  _326
REMARK  135  A    between atoms: _329  and  _331
REMARK  136  A    between atoms: _331  and  _332
REMARK  137  A    between atoms: _331  and  _334
REMARK  138  A    between atoms: _334  and  _335
REMARK  139  A    between atoms: _338  and  _340
REMARK  140  A    between atoms: _340  and  _341
REMARK  141  A    between atoms: _340  and  _343
REMARK  142  A    between atoms: _343  and  _344
REMARK  143  A    between atoms: _347  and  _349
REMARK  144  A    between atoms: _349  and  _350
REMARK  145  A    between atoms: _349  and  _352
REMARK  146  A    between atoms: _352  and  _353
REMARK  147  A    between atoms: _356  and  _358
REMARK  148  A    between atoms: _358  and  _359
REMARK  149  A    between atoms: _358  and  _361
REMARK  150  A    between atoms: _364  and  _366
REMARK  151  A    between atoms: _366  and  _367
REMARK  152  A    between atoms: _366  and  _369
REMARK  153  A    between atoms: _369  and  _370
REMARK  154  A    between atoms: _370  and  _371
REMARK  155  A    between atoms: _371  and  _372
REMARK  156  A    between atoms: _372  and  _373
REMARK  157  A    between atoms: _377  and  _379
REMARK  158  A    between atoms: _379  and  _380
REMARK  159  A    between atoms: _379  and  _382
REMARK  160  A    between atoms: _382  and  _383
REMARK  161  A    between atoms: _383  and  _384
REMARK  162  A    between atoms: _386  and  _388
REMARK  163  A    between atoms: _388  and  _389
REMARK  164  A    between atoms: _388  and  _391
REMARK  165  A    between atoms: _391  and  _392
REMARK  166  A    between atoms: _395  and  _397
REMARK  167  A    between atoms: _397  and  _398
REMARK  168  A    between atoms: _400  and  _402
REMARK  169  A    between atoms: _402  and  _403
REMARK  170  A    between atoms: _405  and  _407
REMARK  171  A    between atoms: _407  and  _408
REMARK  172  A    between atoms: _407  and  _410
REMARK  173  A    between atoms: _410  and  _411
REMARK  174  A    between atoms: _414  and  _416
REMARK  175  A    between atoms: _416  and  _417
REMARK  176  A    between atoms: _419  and  _421
REMARK  177  A    between atoms: _421  and  _422
REMARK  178  A    between atoms: _424  and  _426
REMARK  179  A    between atoms: _426  and  _427
REMARK  180  A    between atoms: _426  and  _429
REMARK  181  A    between atoms: _429  and  _430
REMARK  182  A    between atoms: _436  and  _438
REMARK  183  A    between atoms: _438  and  _439
REMARK  184  A    between atoms: _438  and  _441
REMARK  185  A    between atoms: _441  and  _442
REMARK  186  A    between atoms: _445  and  _447
REMARK  187  A    between atoms: _447  and  _448
REMARK  188  A    between atoms: _447  and  _450
REMARK  189  A    between atoms: _453  and  _455
REMARK  190  A    between atoms: _455  and  _456
REMARK  191  A    between atoms: _455  and  _458
REMARK  192  A    between atoms: _458  and  _459
REMARK  193  A    between atoms: _462  and  _464
REMARK  194  A    between atoms: _464  and  _465
REMARK  195  A    between atoms: _464  and  _467
REMARK  196  A    between atoms: _467  and  _468
REMARK  197  A    between atoms: _472  and  _473
REMARK  198  A    between atoms: _478  and  _480
REMARK  199  A    between atoms: _480  and  _481
REMARK  200  A    between atoms: _480  and  _483
REMARK  201  A    between atoms: _486  and  _488
REMARK  202  A    between atoms: _488  and  _489
REMARK  203  A    between atoms: _488  and  _491
REMARK  204  A    between atoms: _491  and  _492
REMARK  205  A    between atoms: _497  and  _499
REMARK  206  A    between atoms: _499  and  _500
REMARK  207  A    between atoms: _499  and  _502
REMARK  208  A    between atoms: _502  and  _503
REMARK  209  A    between atoms: _506  and  _508
REMARK  210  A    between atoms: _508  and  _509
REMARK  211  A    between atoms: _508  and  _511
REMARK  212  A    between atoms: _511  and  _512
REMARK  213  A    between atoms: _515  and  _517
REMARK  214  A    between atoms: _517  and  _518
REMARK  215  A    between atoms: _520  and  _522
REMARK  216  A    between atoms: _522  and  _523
REMARK  217  A    between atoms: _522  and  _525
REMARK  218  A    between atoms: _525  and  _526
REMARK  219  A    between atoms: _526  and  _527
REMARK  220  A    between atoms: _527  and  _528
REMARK                            x       y       z     vdW  Elec       q    Type
REMARK                         _______ _______ _______ _____ _____    ______ ____
ROOT
ATOM      1  C   GLY A   5      -4.682  13.815  -0.004  0.00  0.00    +0.243 C 
ATOM      2  N   ILE A   6      -5.350  13.666   1.122  0.00  0.00    -0.297 N 
ATOM      3  H   ILE A   6      -6.389  13.690   1.076  0.00  0.00    +0.150 HD
ATOM      4  O   GLY A   5      -3.452  13.830   0.008  0.00  0.00    -0.273 OA
ENDROOT
BRANCH   2   5
ATOM      5  CA  ILE A   6      -4.734  13.470   2.424  0.00  0.00    +0.149 C 
BRANCH   5   6
ATOM      6  C   ILE A   6      -4.635  11.959   2.374  0.00  0.00    +0.241 C 
ATOM      7  N   GLY A   7      -3.556  11.413   2.847  0.00  0.00    -0.295 N 
ATOM      8  H   GLY A   7      -2.735  11.985   3.131  0.00  0.00    +0.150 HD
ATOM      9  O   ILE A   6      -5.480  11.243   1.852  0.00  0.00    -0.273 OA
BRANCH   7  10
ATOM     10  CA  GLY A   7      -3.552   9.983   2.959  0.00  0.00    +0.176 C 
BRANCH  10  11
ATOM     11  C   GLY A   7      -3.303   9.366   1.624  0.00  0.00    +0.243 C 
ATOM     12  O   GLY A   7      -3.385   8.154   1.597  0.00  0.00    -0.273 OA
ATOM     13  N   GLY A   8      -3.010  10.030   0.505  0.00  0.00    -0.295 N 
ATOM     14  H   GLY A   8      -2.952  11.068   0.491  0.00  0.00    +0.150 HD
BRANCH  13  15
ATOM     15  CA  GLY A   8      -2.776   9.244  -0.692  0.00  0.00    +0.176 C 
BRANCH  15  16
ATOM     16  C   GLY A   8      -3.066   9.916  -1.994  0.00  0.00    +0.243 C 
ATOM     17  O   GLY A   8      -3.298  11.118  -1.998  0.00  0.00    -0.273 OA
ATOM     18  N   PHE A   9      -3.044   9.038  -3.018  0.00  0.00    -0.297 N 
ATOM     19  H   PHE A   9      -2.922   8.041  -2.749  0.00  0.00    +0.150 HD
BRANCH  18  20
ATOM     20  CA  PHE A   9      -3.166   9.289  -4.441  0.00  0.00    +0.153 C 
BRANCH  20  21
ATOM     21  C   PHE A   9      -4.104   8.238  -5.018  0.00  0.00    +0.241 C 
ATOM     22  O   PHE A   9      -3.968   7.091  -4.601  0.00  0.00    -0.273 OA
ATOM     23  N   ILE A  10      -5.044   8.510  -5.929  0.00  0.00    -0.298 N 
ATOM     24  H   ILE A  10      -5.165   9.492  -6.249  0.00  0.00    +0.150 HD
BRANCH  23  25
ATOM     25  CA  ILE A  10      -5.902   7.480  -6.486  0.00  0.00    +0.137 C 
BRANCH  25  26
ATOM     26  C   ILE A  10      -5.914   7.592  -7.993  0.00  0.00    +0.227 C 
ATOM     27  O   ILE A  10      -5.614   8.646  -8.558  0.00  0.00    -0.286 OA
ENDBRANCH  25  26
BRANCH  25  28
ATOM     28  CB  ILE A  10      -7.405   7.556  -6.039  0.00  0.00    +0.026 C 
ATOM     29  CG2 ILE A  10      -7.593   7.052  -4.633  0.00  0.00    +0.002 C 
BRANCH  28  30
ATOM     30  CG1 ILE A  10      -7.904   8.963  -6.199  0.00  0.00    +0.002 C 
ATOM     31  CD1 ILE A  10      -9.399   9.021  -5.952  0.00  0.00    +0.000 C 
ENDBRANCH  28  30
ENDBRANCH  25  28
ENDBRANCH  23  25
ENDBRANCH  20  21
BRANCH  20  32
ATOM     32  CB  PHE A   9      -1.804   9.176  -5.128  0.00  0.00    +0.055 C 
BRANCH  32  33
ATOM     33  CG  PHE A   9      -0.960  10.452  -5.041  0.00  0.00    -0.020 A 
ATOM     34  CD2 PHE A   9      -0.015  10.619  -4.038  0.00  0.00    -0.004 A 
ATOM     35  CE2 PHE A   9       0.741  11.783  -3.984  0.00  0.00    -0.000 A 
ATOM     36  CZ  PHE A   9       0.565  12.789  -4.914  0.00  0.00    -0.000 A 
ATOM     37  CE1 PHE A   9      -0.372  12.627  -5.913  0.00  0.00    -0.000 A 
ATOM     38  CD1 PHE A   9      -1.135  11.469  -5.976  0.00  0.00    -0.004 A 
ENDBRANCH  32  33
ENDBRANCH  20  32
ENDBRANCH  18  20
ENDBRANCH  15  16
ENDBRANCH  13  15
ENDBRANCH  10  11
ENDBRANCH   7  10
ENDBRANCH   5   6
BRANCH   5  39
ATOM     39  CB  ILE A   6      -5.677  13.967   3.661  0.00  0.00    +0.027 C 
ATOM     40  CG2 ILE A   6      -5.911  12.907   4.726  0.00  0.00    +0.002 C 
BRANCH  39  41
ATOM     41  CG1 ILE A   6      -4.987  15.023   4.513  0.00  0.00    +0.002 C 
ATOM     42  CD1 ILE A   6      -5.039  16.521   4.073  0.00  0.00    +0.000 C 
ENDBRANCH  39  41
ENDBRANCH   5  39
ENDBRANCH   2   5
BRANCH   1  43
ATOM     43  CA  GLY A   5      -5.507  13.973  -1.284  0.00  0.00    +0.176 C 
BRANCH  43  45
ATOM     44  C   GLY A   4      -4.828  14.055  -3.669  0.00  0.00    +0.243 C 
ATOM     45  N   GLY A   5      -4.725  13.566  -2.437  0.00  0.00    -0.295 N 
ATOM     46  H   GLY A   5      -4.016  12.820  -2.285  0.00  0.00    +0.150 HD
ATOM     47  O   GLY A   4      -5.622  14.956  -3.961  0.00  0.00    -0.273 OA
BRANCH  44  48
ATOM     48  CA  GLY A   4      -3.844  13.482  -4.699  0.00  0.00    +0.176 C 
BRANCH  48  50
ATOM     49  C   ILE A   3      -4.800  12.487  -6.695  0.00  0.00    +0.241 C 
ATOM     50  N   GLY A   4      -4.324  13.549  -6.070  0.00  0.00    -0.295 N 
ATOM     51  H   GLY A   4      -4.292  14.459  -6.573  0.00  0.00    +0.150 HD
ATOM     52  O   ILE A   3      -4.812  11.343  -6.235  0.00  0.00    -0.273 OA
BRANCH  49  53
ATOM     53  CA  ILE A   3      -5.418  12.740  -8.029  0.00  0.00    +0.149 C 
BRANCH  53  55
ATOM     54  C   MET A   2      -4.504  11.561  -9.963  0.00  0.00    +0.241 C 
ATOM     55  N   ILE A   3      -5.142  11.526  -8.798  0.00  0.00    -0.297 N 
ATOM     56  H   ILE A   3      -5.455  10.608  -8.421  0.00  0.00    +0.150 HD
ATOM     57  O   MET A   2      -4.013  12.615 -10.388  0.00  0.00    -0.273 OA
BRANCH  54  58
ATOM     58  CA  MET A   2      -4.379  10.275 -10.780  0.00  0.00    +0.149 C 
BRANCH  58  60
ATOM     59  C   LYS A   1      -5.346   9.828 -12.985  0.00  0.00    +0.243 C 
ATOM     60  N   MET A   2      -4.615  10.597 -12.182  0.00  0.00    -0.297 N 
ATOM     61  H   MET A   2      -4.194  11.465 -12.571  0.00  0.00    +0.150 HD
ATOM     62  O   LYS A   1      -5.978   8.875 -12.524  0.00  0.00    -0.273 OA
BRANCH  59  63
ATOM     63  CA  LYS A   1      -5.471  10.189 -14.459  0.00  0.00    +0.167 C 
BRANCH  63  64
ATOM     64  N   LYS A   1      -6.135   9.042 -15.073  0.00  0.00    -0.234 NA
ATOM     65  H   LYS A   1      -6.584   8.355 -14.434  0.00  0.00    +0.142 HD
ENDBRANCH  63  64
BRANCH  63  66
ATOM     66  CB  LYS A   1      -6.326  11.469 -14.621  0.00  0.00    -0.005 C 
ATOM     67  CG  LYS A   1      -5.713  12.829 -14.254  0.00  0.00    -0.031 C 
BRANCH  67  68
ATOM     68  CD  LYS A   1      -6.657  14.047 -14.441  0.00  0.00    +0.002 C 
BRANCH  68  69
ATOM     69  CE  LYS A   1      -6.110  15.383 -13.841  0.00  0.00    -0.081 C 
BRANCH  69  70
ATOM     70  NZ  LYS A   1      -6.766  16.617 -14.295  0.00  0.00    +0.381 N 
ATOM     71  HZ1 LYS A   1      -6.321  17.435 -13.832  0.00  0.00    -0.089 HD
ATOM     72  HZ2 LYS A   1      -7.775  16.583 -14.047  0.00  0.00    -0.089 HD
ATOM     73  HZ3 LYS A   1      -6.664  16.703 -15.326  0.00  0.00    -0.089 HD
ENDBRANCH  69  70
ENDBRANCH  68  69
ENDBRANCH  67  68
ENDBRANCH  63  66
ENDBRANCH  59  63
ENDBRANCH  58  60
BRANCH  58  74
ATOM     74  CB  MET A   2      -2.987   9.693 -10.702  0.00  0.00    +0.041 C 
BRANCH  74  75
ATOM     75  CG  MET A   2      -2.785   8.776  -9.532  0.00  0.00    +0.060 C 
BRANCH  75  76
ATOM     76  SD  MET A   2      -1.440   7.667  -9.956  0.00  0.00    -0.139 S 
ATOM     77  CE  MET A   2      -1.047   7.086  -8.303  0.00  0.00    +0.069 C 
ENDBRANCH  75  76
ENDBRANCH  74  75
ENDBRANCH  58  74
ENDBRANCH  54  58
ENDBRANCH  53  55
BRANCH  53  78
ATOM     78  CB  ILE A   3      -7.022  12.932  -7.961  0.00  0.00    +0.027 C 
ATOM     79  CG2 ILE A   3      -7.770  12.279  -6.831  0.00  0.00    +0.002 C 
BRANCH  78  80
ATOM     80  CG1 ILE A   3      -7.292  14.345  -7.694  0.00  0.00    +0.002 C 
ATOM     81  CD1 ILE A   3      -7.439  14.920  -9.096  0.00  0.00    +0.000 C 
ENDBRANCH  78  80
ENDBRANCH  53  78
ENDBRANCH  49  53
ENDBRANCH  48  50
ENDBRANCH  44  48
ENDBRANCH  43  45
ENDBRANCH   1  43
TORSDOF 35
REMARK  Name = ../refined-set-2016/1aaq/1aaq_pocket.pdb
REMARK  220 active torsions:
REMARK  status: ('A' for Active; 'I' for Inactive)
REMARK    1  A    between atoms: _1  and  _3
REMARK    2  A    between atoms: _3  and  _4
REMARK    3  A    between atoms: _3  and  _6
REMARK    4  A    between atoms: _6  and  _7
REMARK    5  A    between atoms: _7  and  _8
REMARK    6  A    between atoms: _8  and  _9
REMARK    7  A    between atoms: _18  and  _20
REMARK    8  A    between atoms: _20  and  _21
REMARK    9  A    between atoms: _20  and  _23
REMARK   10  A    between atoms: _23  and  _24
REMARK   11  A    between atoms: _27  and  _29
REMARK   12  A    between atoms: _29  and  _30
REMARK   13  A    between atoms: _29  and  _32
REMARK   14  A    between atoms: _32  and  _33
REMARK   15  A    between atoms: _36  and  _38
REMARK   16  A    between atoms: _38  and  _39
REMARK   17  A    between atoms: _38  and  _41
REMARK   18  A    between atoms: _41  and  _42
REMARK   19  A    between atoms: _45  and  _47
REMARK   20  A    between atoms: _47  and  _48
REMARK   21  A    between atoms: _47  and  _50
REMARK   22  A    between atoms: _50  and  _51
REMARK   23  A    between atoms: _54  and  _56
REMARK   24  A    between atoms: _56  and  _57
REMARK   25  A    between atoms: _59  and  _61
REMARK   26  A    between atoms: _61  and  _62
REMARK   27  A    between atoms: _65  and  _67
REMARK   28  A    between atoms: _67  and  _68
REMARK   29  A    between atoms: _67  and  _70
REMARK   30  A    between atoms: _70  and  _71
REMARK   31  A    between atoms: _74  and  _76
REMARK   32  A    between atoms: _76  and  _77
REMARK   33  A    between atoms: _76  and  _79
REMARK   34  A    between atoms: _79  and  _80
REMARK   35  A    between atoms: _83  and  _85
REMARK   36  A    between atoms: _85  and  _86
REMARK   37  A    between atoms: _85  and  _88
REMARK   38  A    between atoms: _88  and  _89
REMARK   39  A    between atoms: _92  and  _94
REMARK   40  A    between atoms: _94  and  _95
REMARK   41  A    between atoms: _94  and  _97
REMARK   42  A    between atoms: _100  and  _102
REMARK   43  A    between atoms: _102  and  _103
REMARK   44  A    between atoms: _102  and  _105
REMARK   45  A    between atoms: _106  and  _107
REMARK   46  A    between atoms: _107  and  _108
REMARK   47  A    between atoms: _108  and  _109
REMARK   48  A    between atoms: _113  and  _115
REMARK   49  A    between atoms: _115  and  _116
REMARK   50  A    between atoms: _115  and  _118
REMARK   51  A    between atoms: _118  and  _119
REMARK   52  A    between atoms: _119  and  _120
REMARK   53  A    between atoms: _122  and  _124
REMARK   54  A    between atoms: _124  and  _125
REMARK   55  A    between atoms: _124  and  _127
REMARK   56  A    between atoms: _127  and  _128
REMARK   57  A    between atoms: _131  and  _133
REMARK   58  A    between atoms: _133  and  _134
REMARK   59  A    between atoms: _136  and  _138
REMARK   60  A    between atoms: _138  and  _139
REMARK   61  A    between atoms: _141  and  _143
REMARK   62  A    between atoms: _143  and  _144
REMARK   63  A    between atoms: _143  and  _146
REMARK   64  A    between atoms: _146  and  _147
REMARK   65  A    between atoms: _150  and  _152
REMARK   66  A    between atoms: _152  and  _153
REMARK   67  A    between atoms: _155  and  _157
REMARK   68  A    between atoms: _157  and  _158
REMARK   69  A    between atoms: _160  and  _162
REMARK   70  A    between atoms: _162  and  _163
REMARK   71  A    between atoms: _162  and  _165
REMARK   72  A    between atoms: _165  and  _166
REMARK   73  A    between atoms: _172  and  _174
REMARK   74  A    between atoms: _174  and  _175
REMARK   75  A    between atoms: _174  and  _177
REMARK   76  A    between atoms: _177  and  _178
REMARK   77  A    between atoms: _181  and  _183
REMARK   78  A    between atoms: _183  and  _184
REMARK   79  A    between atoms: _183  and  _186
REMARK   80  A    between atoms: _186  and  _187
REMARK   81  A    between atoms: _190  and  _192
REMARK   82  A    between atoms: _192  and  _193
REMARK   83  A    between atoms: _192  and  _195
REMARK   84  A    between atoms: _195  and  _196
REMARK   85  A    between atoms: _200  and  _201
REMARK   86  A    between atoms: _206  and  _208
REMARK   87  A    between atoms: _208  and  _209
REMARK   88  A    between atoms: _208  and  _211
REMARK   89  A    between atoms: _214  and  _216
REMARK   90  A    between atoms: _216  and  _217
REMARK   91  A    between atoms: _216  and  _219
REMARK   92  A    between atoms: _219  and  _220
REMARK   93  A    between atoms: _223  and  _225
REMARK   94  A    between atoms: _225  and  _226
REMARK   95  A    between atoms: _225  and  _228
REMARK   96  A    between atoms: _228  and  _229
REMARK   97  A    between atoms: _232  and  _234
REMARK   98  A    between atoms: _234  and  _235
REMARK   99  A    between atoms: _237  and  _239
REMARK  100  A    between atoms: _239  and  _240
REMARK  101  A    between atoms: _239  and  _242
REMARK  102  A    between atoms: _242  and  _243
REMARK  103  A    between atoms: _243  and  _244
REMARK  104  A    between atoms: _244  and  _245
REMARK  105  A    between atoms: _254  and  _256
REMARK  106  A    between atoms: _256  and  _257
REMARK  107  A    between atoms: _256  and  _259
REMARK  108  A    between atoms: _259  and  _260
REMARK  109  A    between atoms: _265  and  _267
REMARK  110  A    between atoms: _267  and  _268
REMARK  111  A    between atoms: _267  and  _270
REMARK  112  A    between atoms: _270  and  _271
REMARK  113  A    between atoms: _271  and  _272
REMARK  114  A    between atoms: _272  and  _273
REMARK  115  A    between atoms: _282  and  _284
REMARK  116  A    between atoms: _284  and  _285
REMARK  117  A    between atoms: _284  and  _287
REMARK  118  A    between atoms: _287  and  _288
REMARK  119  A    between atoms: _291  and  _293
REMARK  120  A    between atoms: _293  and  _294
REMARK  121  A    between atoms: _293  and  _296
REMARK  122  A    between atoms: _296  and  _297
REMARK  123  A    between atoms: _300  and  _302
REMARK  124  A    between atoms: _302  and  _303
REMARK  125  A    between atoms: _302  and  _305
REMARK  126  A    between atoms: _305  and  _306
REMARK  127  A    between atoms: _309  and  _311
REMARK  128  A    between atoms: _311  and  _312
REMARK  129  A    between atoms: _311  and  _314
REMARK  130  A    between atoms: _314  and  _315
REMARK  131  A    between atoms: _318  and  _320
REMARK  132  A    between atoms: _320  and  _321
REMARK  133  A    between atoms: _323  and  _325
REMARK  134  A    between atoms: _325  and  _326
REMARK  135  A    between atoms: _329  and  _331
REMARK  136  A    between atoms: _331  and  _332
REMARK  137  A    between atoms: _331  and  _334
REMARK  138  A    between atoms: _334  and  _335
REMARK  139  A    between atoms: _338  and  _340
REMARK  140  A    between atoms: _340  and  _341
REMARK  141  A    between atoms: _340  and  _343
REMARK  142  A    between atoms: _343  and  _344
REMARK  143  A    between atoms: _347  and  _349
REMARK  144  A    between atoms: _349  and  _350
REMARK  145  A    between atoms: _349  and  _352
REMARK  146  A    between atoms: _352  and  _353
REMARK  147  A    between atoms: _356  and  _358
REMARK  148  A    between atoms: _358  and  _359
REMARK  149  A    between atoms: _358  and  _361
REMARK  150  A    between atoms: _364  and  _366
REMARK  151  A    between atoms: _366  and  _367
REMARK  152  A    between atoms: _366  and  _369
REMARK  153  A    between atoms: _369  and  _370
REMARK  154  A    between atoms: _370  and  _371
REMARK  155  A    between atoms: _371  and  _372
REMARK  156  A    between atoms: _372  and  _373
REMARK  157  A    between atoms: _377  and  _379
REMARK  158  A    between atoms: _379  and  _380
REMARK  159  A    between atoms: _379  and  _382
REMARK  160  A    between atoms: _382  and  _383
REMARK  161  A    between atoms: _383  and  _384
REMARK  162  A    between atoms: _386  and  _388
REMARK  163  A    between atoms: _388  and  _389
REMARK  164  A    between atoms: _388  and  _391
REMARK  165  A    between atoms: _391  and  _392
REMARK  166  A    between atoms: _395  and  _397
REMARK  167  A    between atoms: _397  and  _398
REMARK  168  A    between atoms: _400  and  _402
REMARK  169  A    between atoms: _402  and  _403
REMARK  170  A    between atoms: _405  and  _407
REMARK  171  A    between atoms: _407  and  _408
REMARK  172  A    between atoms: _407  and  _410
REMARK  173  A    between atoms: _410  and  _411
REMARK  174  A    between atoms: _414  and  _416
REMARK  175  A    between atoms: _416  and  _417
REMARK  176  A    between atoms: _419  and  _421
REMARK  177  A    between atoms: _421  and  _422
REMARK  178  A    between atoms: _424  and  _426
REMARK  179  A    between atoms: _426  and  _427
REMARK  180  A    between atoms: _426  and  _429
REMARK  181  A    between atoms: _429  and  _430
REMARK  182  A    between atoms: _436  and  _438
REMARK  183  A    between atoms: _438  and  _439
REMARK  184  A    between atoms: _438  and  _441
REMARK  185  A    between atoms: _441  and  _442
REMARK  186  A    between atoms: _445  and  _447
REMARK  187  A    between atoms: _447  and  _448
REMARK  188  A    between atoms: _447  and  _450
REMARK  189  A    between atoms: _453  and  _455
REMARK  190  A    between atoms: _455  and  _456
REMARK  191  A    between atoms: _455  and  _458
REMARK  192  A    between atoms: _458  and  _459
REMARK  193  A    between atoms: _462  and  _464
REMARK  194  A    between atoms: _464  and  _465
REMARK  195  A    between atoms: _464  and  _467
REMARK  196  A    between atoms: _467  and  _468
REMARK  197  A    between atoms: _472  and  _473
REMARK  198  A    between atoms: _478  and  _480
REMARK  199  A    between atoms: _480  and  _481
REMARK  200  A    between atoms: _480  and  _483
REMARK  201  A    between atoms: _486  and  _488
REMARK  202  A    between atoms: _488  and  _489
REMARK  203  A    between atoms: _488  and  _491
REMARK  204  A    between atoms: _491  and  _492
REMARK  205  A    between atoms: _497  and  _499
REMARK  206  A    between atoms: _499  and  _500
REMARK  207  A    between atoms: _499  and  _502
REMARK  208  A    between atoms: _502  and  _503
REMARK  209  A    between atoms: _506  and  _508
REMARK  210  A    between atoms: _508  and  _509
REMARK  211  A    between atoms: _508  and  _511
REMARK  212  A    between atoms: _511  and  _512
REMARK  213  A    between atoms: _515  and  _517
REMARK  214  A    between atoms: _517  and  _518
REMARK  215  A    between atoms: _520  and  _522
REMARK  216  A    between atoms: _522  and  _523
REMARK  217  A    between atoms: _522  and  _525
REMARK  218  A    between atoms: _525  and  _526
REMARK  219  A    between atoms: _526  and  _527
REMARK  220  A    between atoms: _527  and  _528
REMARK                            x       y       z     vdW  Elec       q    Type
REMARK                         _______ _______ _______ _____ _____    ______ ____
ROOT
ATOM      1  CA  LEU A   1     -13.436  12.700 -12.348  0.00  0.00    +0.133 C 
ENDROOT
BRANCH   1   2
ATOM      2  N   LEU A   1     -14.356  13.759 -12.638  0.00  0.00    -0.239 NA
ATOM      3  H   LEU A   1     -14.704  14.297 -11.819  0.00  0.00    +0.142 HD
ENDBRANCH   1   2
BRANCH   1   4
ATOM      4  C   LEU A   1     -14.283  11.787 -11.495  0.00  0.00    +0.224 C 
ATOM      5  O   LEU A   1     -14.852  12.199 -10.489  0.00  0.00    -0.287 OA
ENDBRANCH   1   4
BRANCH   1   6
ATOM      6  CB  LEU A   1     -12.291  13.228 -11.548  0.00  0.00    +0.025 C 
BRANCH   6   7
ATOM      7  CG  LEU A   1     -11.057  13.648 -12.317  0.00  0.00    +0.002 C 
ATOM      8  CD2 LEU A   1      -9.994  14.105 -11.356  0.00  0.00    +0.000 C 
ATOM      9  CD1 LEU A   1     -11.367  14.796 -13.224  0.00  0.00    +0.000 C 
ENDBRANCH   6   7
ENDBRANCH   1   6
TORSDOF 4
REMARK  Name = ../refined-set-2016/1aaq/1aaq_pocket.pdb
REMARK  220 active torsions:
REMARK  status: ('A' for Active; 'I' for Inactive)
REMARK    1  A    between atoms: _1  and  _3
REMARK    2  A    between atoms: _3  and  _4
REMARK    3  A    between atoms: _3  and  _6
REMARK    4  A    between atoms: _6  and  _7
REMARK    5  A    between atoms: _7  and  _8
REMARK    6  A    between atoms: _8  and  _9
REMARK    7  A    between atoms: _18  and  _20
REMARK    8  A    between atoms: _20  and  _21
REMARK    9  A    between atoms: _20  and  _23
REMARK   10  A    between atoms: _23  and  _24
REMARK   11  A    between atoms: _27  and  _29
REMARK   12  A    between atoms: _29  and  _30
REMARK   13  A    between atoms: _29  and  _32
REMARK   14  A    between atoms: _32  and  _33
REMARK   15  A    between atoms: _36  and  _38
REMARK   16  A    between atoms: _38  and  _39
REMARK   17  A    between atoms: _38  and  _41
REMARK   18  A    between atoms: _41  and  _42
REMARK   19  A    between atoms: _45  and  _47
REMARK   20  A    between atoms: _47  and  _48
REMARK   21  A    between atoms: _47  and  _50
REMARK   22  A    between atoms: _50  and  _51
REMARK   23  A    between atoms: _54  and  _56
REMARK   24  A    between atoms: _56  and  _57
REMARK   25  A    between atoms: _59  and  _61
REMARK   26  A    between atoms: _61  and  _62
REMARK   27  A    between atoms: _65  and  _67
REMARK   28  A    between atoms: _67  and  _68
REMARK   29  A    between atoms: _67  and  _70
REMARK   30  A    between atoms: _70  and  _71
REMARK   31  A    between atoms: _74  and  _76
REMARK   32  A    between atoms: _76  and  _77
REMARK   33  A    between atoms: _76  and  _79
REMARK   34  A    between atoms: _79  and  _80
REMARK   35  A    between atoms: _83  and  _85
REMARK   36  A    between atoms: _85  and  _86
REMARK   37  A    between atoms: _85  and  _88
REMARK   38  A    between atoms: _88  and  _89
REMARK   39  A    between atoms: _92  and  _94
REMARK   40  A    between atoms: _94  and  _95
REMARK   41  A    between atoms: _94  and  _97
REMARK   42  A    between atoms: _100  and  _102
REMARK   43  A    between atoms: _102  and  _103
REMARK   44  A    between atoms: _102  and  _105
REMARK   45  A    between atoms: _106  and  _107
REMARK   46  A    between atoms: _107  and  _108
REMARK   47  A    between atoms: _108  and  _109
REMARK   48  A    between atoms: _113  and  _115
REMARK   49  A    between atoms: _115  and  _116
REMARK   50  A    between atoms: _115  and  _118
REMARK   51  A    between atoms: _118  and  _119
REMARK   52  A    between atoms: _119  and  _120
REMARK   53  A    between atoms: _122  and  _124
REMARK   54  A    between atoms: _124  and  _125
REMARK   55  A    between atoms: _124  and  _127
REMARK   56  A    between atoms: _127  and  _128
REMARK   57  A    between atoms: _131  and  _133
REMARK   58  A    between atoms: _133  and  _134
REMARK   59  A    between atoms: _136  and  _138
REMARK   60  A    between atoms: _138  and  _139
REMARK   61  A    between atoms: _141  and  _143
REMARK   62  A    between atoms: _143  and  _144
REMARK   63  A    between atoms: _143  and  _146
REMARK   64  A    between atoms: _146  and  _147
REMARK   65  A    between atoms: _150  and  _152
REMARK   66  A    between atoms: _152  and  _153
REMARK   67  A    between atoms: _155  and  _157
REMARK   68  A    between atoms: _157  and  _158
REMARK   69  A    between atoms: _160  and  _162
REMARK   70  A    between atoms: _162  and  _163
REMARK   71  A    between atoms: _162  and  _165
REMARK   72  A    between atoms: _165  and  _166
REMARK   73  A    between atoms: _172  and  _174
REMARK   74  A    between atoms: _174  and  _175
REMARK   75  A    between atoms: _174  and  _177
REMARK   76  A    between atoms: _177  and  _178
REMARK   77  A    between atoms: _181  and  _183
REMARK   78  A    between atoms: _183  and  _184
REMARK   79  A    between atoms: _183  and  _186
REMARK   80  A    between atoms: _186  and  _187
REMARK   81  A    between atoms: _190  and  _192
REMARK   82  A    between atoms: _192  and  _193
REMARK   83  A    between atoms: _192  and  _195
REMARK   84  A    between atoms: _195  and  _196
REMARK   85  A    between atoms: _200  and  _201
REMARK   86  A    between atoms: _206  and  _208
REMARK   87  A    between atoms: _208  and  _209
REMARK   88  A    between atoms: _208  and  _211
REMARK   89  A    between atoms: _214  and  _216
REMARK   90  A    between atoms: _216  and  _217
REMARK   91  A    between atoms: _216  and  _219
REMARK   92  A    between atoms: _219  and  _220
REMARK   93  A    between atoms: _223  and  _225
REMARK   94  A    between atoms: _225  and  _226
REMARK   95  A    between atoms: _225  and  _228
REMARK   96  A    between atoms: _228  and  _229
REMARK   97  A    between atoms: _232  and  _234
REMARK   98  A    between atoms: _234  and  _235
REMARK   99  A    between atoms: _237  and  _239
REMARK  100  A    between atoms: _239  and  _240
REMARK  101  A    between atoms: _239  and  _242
REMARK  102  A    between atoms: _242  and  _243
REMARK  103  A    between atoms: _243  and  _244
REMARK  104  A    between atoms: _244  and  _245
REMARK  105  A    between atoms: _254  and  _256
REMARK  106  A    between atoms: _256  and  _257
REMARK  107  A    between atoms: _256  and  _259
REMARK  108  A    between atoms: _259  and  _260
REMARK  109  A    between atoms: _265  and  _267
REMARK  110  A    between atoms: _267  and  _268
REMARK  111  A    between atoms: _267  and  _270
REMARK  112  A    between atoms: _270  and  _271
REMARK  113  A    between atoms: _271  and  _272
REMARK  114  A    between atoms: _272  and  _273
REMARK  115  A    between atoms: _282  and  _284
REMARK  116  A    between atoms: _284  and  _285
REMARK  117  A    between atoms: _284  and  _287
REMARK  118  A    between atoms: _287  and  _288
REMARK  119  A    between atoms: _291  and  _293
REMARK  120  A    between atoms: _293  and  _294
REMARK  121  A    between atoms: _293  and  _296
REMARK  122  A    between atoms: _296  and  _297
REMARK  123  A    between atoms: _300  and  _302
REMARK  124  A    between atoms: _302  and  _303
REMARK  125  A    between atoms: _302  and  _305
REMARK  126  A    between atoms: _305  and  _306
REMARK  127  A    between atoms: _309  and  _311
REMARK  128  A    between atoms: _311  and  _312
REMARK  129  A    between atoms: _311  and  _314
REMARK  130  A    between atoms: _314  and  _315
REMARK  131  A    between atoms: _318  and  _320
REMARK  132  A    between atoms: _320  and  _321
REMARK  133  A    between atoms: _323  and  _325
REMARK  134  A    between atoms: _325  and  _326
REMARK  135  A    between atoms: _329  and  _331
REMARK  136  A    between atoms: _331  and  _332
REMARK  137  A    between atoms: _331  and  _334
REMARK  138  A    between atoms: _334  and  _335
REMARK  139  A    between atoms: _338  and  _340
REMARK  140  A    between atoms: _340  and  _341
REMARK  141  A    between atoms: _340  and  _343
REMARK  142  A    between atoms: _343  and  _344
REMARK  143  A    between atoms: _347  and  _349
REMARK  144  A    between atoms: _349  and  _350
REMARK  145  A    between atoms: _349  and  _352
REMARK  146  A    between atoms: _352  and  _353
REMARK  147  A    between atoms: _356  and  _358
REMARK  148  A    between atoms: _358  and  _359
REMARK  149  A    between atoms: _358  and  _361
REMARK  150  A    between atoms: _364  and  _366
REMARK  151  A    between atoms: _366  and  _367
REMARK  152  A    between atoms: _366  and  _369
REMARK  153  A    between atoms: _369  and  _370
REMARK  154  A    between atoms: _370  and  _371
REMARK  155  A    between atoms: _371  and  _372
REMARK  156  A    between atoms: _372  and  _373
REMARK  157  A    between atoms: _377  and  _379
REMARK  158  A    between atoms: _379  and  _380
REMARK  159  A    between atoms: _379  and  _382
REMARK  160  A    between atoms: _382  and  _383
REMARK  161  A    between atoms: _383  and  _384
REMARK  162  A    between atoms: _386  and  _388
REMARK  163  A    between atoms: _388  and  _389
REMARK  164  A    between atoms: _388  and  _391
REMARK  165  A    between atoms: _391  and  _392
REMARK  166  A    between atoms: _395  and  _397
REMARK  167  A    between atoms: _397  and  _398
REMARK  168  A    between atoms: _400  and  _402
REMARK  169  A    between atoms: _402  and  _403
REMARK  170  A    between atoms: _405  and  _407
REMARK  171  A    between atoms: _407  and  _408
REMARK  172  A    between atoms: _407  and  _410
REMARK  173  A    between atoms: _410  and  _411
REMARK  174  A    between atoms: _414  and  _416
REMARK  175  A    between atoms: _416  and  _417
REMARK  176  A    between atoms: _419  and  _421
REMARK  177  A    between atoms: _421  and  _422
REMARK  178  A    between atoms: _424  and  _426
REMARK  179  A    between atoms: _426  and  _427
REMARK  180  A    between atoms: _426  and  _429
REMARK  181  A    between atoms: _429  and  _430
REMARK  182  A    between atoms: _436  and  _438
REMARK  183  A    between atoms: _438  and  _439
REMARK  184  A    between atoms: _438  and  _441
REMARK  185  A    between atoms: _441  and  _442
REMARK  186  A    between atoms: _445  and  _447
REMARK  187  A    between atoms: _447  and  _448
REMARK  188  A    between atoms: _447  and  _450
REMARK  189  A    between atoms: _453  and  _455
REMARK  190  A    between atoms: _455  and  _456
REMARK  191  A    between atoms: _455  and  _458
REMARK  192  A    between atoms: _458  and  _459
REMARK  193  A    between atoms: _462  and  _464
REMARK  194  A    between atoms: _464  and  _465
REMARK  195  A    between atoms: _464  and  _467
REMARK  196  A    between atoms: _467  and  _468
REMARK  197  A    between atoms: _472  and  _473
REMARK  198  A    between atoms: _478  and  _480
REMARK  199  A    between atoms: _480  and  _481
REMARK  200  A    between atoms: _480  and  _483
REMARK  201  A    between atoms: _486  and  _488
REMARK  202  A    between atoms: _488  and  _489
REMARK  203  A    between atoms: _488  and  _491
REMARK  204  A    between atoms: _491  and  _492
REMARK  205  A    between atoms: _497  and  _499
REMARK  206  A    between atoms: _499  and  _500
REMARK  207  A    between atoms: _499  and  _502
REMARK  208  A    between atoms: _502  and  _503
REMARK  209  A    between atoms: _506  and  _508
REMARK  210  A    between atoms: _508  and  _509
REMARK  211  A    between atoms: _508  and  _511
REMARK  212  A    between atoms: _511  and  _512
REMARK  213  A    between atoms: _515  and  _517
REMARK  214  A    between atoms: _517  and  _518
REMARK  215  A    between atoms: _520  and  _522
REMARK  216  A    between atoms: _522  and  _523
REMARK  217  A    between atoms: _522  and  _525
REMARK  218  A    between atoms: _525  and  _526
REMARK  219  A    between atoms: _526  and  _527
REMARK  220  A    between atoms: _527  and  _528
REMARK                            x       y       z     vdW  Elec       q    Type
REMARK                         _______ _______ _______ _____ _____    ______ ____
ROOT
ATOM      1  C   THR A   1     -14.645   8.501  -2.340  0.00  0.00    +0.244 C 
ATOM      2  N   PRO A   2     -14.600   8.880  -1.036  0.00  0.00    -0.272 N 
ATOM      3  CA  PRO A   2     -15.601   8.538  -0.028  0.00  0.00    +0.152 C 
ATOM      4  CB  PRO A   2     -14.867   8.612   1.301  0.00  0.00    +0.031 C 
ATOM      5  CG  PRO A   2     -13.862   9.669   1.071  0.00  0.00    +0.024 C 
ATOM      6  CD  PRO A   2     -13.419   9.393  -0.340  0.00  0.00    +0.094 C 
ATOM      7  O   THR A   1     -15.432   7.618  -2.715  0.00  0.00    -0.273 OA
ENDROOT
BRANCH   3   8
ATOM      8  C   PRO A   2     -16.862   9.382  -0.018  0.00  0.00    +0.241 C 
ATOM      9  O   PRO A   2     -17.863   9.016   0.612  0.00  0.00    -0.273 OA
ATOM     10  N   VAL A   3     -16.823  10.537  -0.680  0.00  0.00    -0.298 N 
ATOM     11  H   VAL A   3     -15.970  10.828  -1.199  0.00  0.00    +0.150 HD
BRANCH  10  12
ATOM     12  CA  VAL A   3     -17.983  11.361  -0.657  0.00  0.00    +0.137 C 
BRANCH  12  13
ATOM     13  CB  VAL A   3     -17.842  12.200   0.658  0.00  0.00    +0.026 C 
ATOM     14  CG2 VAL A   3     -19.180  12.805   0.958  0.00  0.00    +0.002 C 
ATOM     15  CG1 VAL A   3     -16.752  13.246   0.573  0.00  0.00    +0.002 C 
ENDBRANCH  12  13
BRANCH  12  16
ATOM     16  C   VAL A   3     -17.912  12.099  -1.960  0.00  0.00    +0.227 C 
ATOM     17  O   VAL A   3     -16.842  12.247  -2.515  0.00  0.00    -0.286 OA
ENDBRANCH  12  16
ENDBRANCH  10  12
ENDBRANCH   3   8
BRANCH   1  18
ATOM     18  CA  THR A   1     -13.709   9.135  -3.386  0.00  0.00    +0.172 C 
BRANCH  18  19
ATOM     19  N   THR A   1     -13.588   8.234  -4.524  0.00  0.00    -0.236 NA
ATOM     20  H   THR A   1     -14.033   8.479  -5.431  0.00  0.00    +0.142 HD
ENDBRANCH  18  19
BRANCH  18  21
ATOM     21  CB  THR A   1     -14.270  10.461  -3.821  0.00  0.00    +0.135 C 
ATOM     22  CG2 THR A   1     -15.551  10.278  -4.556  0.00  0.00    +0.034 C 
BRANCH  21  23
ATOM     23  OG1 THR A   1     -14.392  11.276  -2.651  0.00  0.00    -0.383 OA
ATOM     24  HG1 THR A   1     -14.760  12.160  -2.903  0.00  0.00    +0.210 HD
ENDBRANCH  21  23
ENDBRANCH  18  21
ENDBRANCH   1  18
TORSDOF 8
REMARK  Name = ../refined-set-2016/1aaq/1aaq_pocket.pdb
REMARK  220 active torsions:
REMARK  status: ('A' for Active; 'I' for Inactive)
REMARK    1  A    between atoms: _1  and  _3
REMARK    2  A    between atoms: _3  and  _4
REMARK    3  A    between atoms: _3  and  _6
REMARK    4  A    between atoms: _6  and  _7
REMARK    5  A    between atoms: _7  and  _8
REMARK    6  A    between atoms: _8  and  _9
REMARK    7  A    between atoms: _18  and  _20
REMARK    8  A    between atoms: _20  and  _21
REMARK    9  A    between atoms: _20  and  _23
REMARK   10  A    between atoms: _23  and  _24
REMARK   11  A    between atoms: _27  and  _29
REMARK   12  A    between atoms: _29  and  _30
REMARK   13  A    between atoms: _29  and  _32
REMARK   14  A    between atoms: _32  and  _33
REMARK   15  A    between atoms: _36  and  _38
REMARK   16  A    between atoms: _38  and  _39
REMARK   17  A    between atoms: _38  and  _41
REMARK   18  A    between atoms: _41  and  _42
REMARK   19  A    between atoms: _45  and  _47
REMARK   20  A    between atoms: _47  and  _48
REMARK   21  A    between atoms: _47  and  _50
REMARK   22  A    between atoms: _50  and  _51
REMARK   23  A    between atoms: _54  and  _56
REMARK   24  A    between atoms: _56  and  _57
REMARK   25  A    between atoms: _59  and  _61
REMARK   26  A    between atoms: _61  and  _62
REMARK   27  A    between atoms: _65  and  _67
REMARK   28  A    between atoms: _67  and  _68
REMARK   29  A    between atoms: _67  and  _70
REMARK   30  A    between atoms: _70  and  _71
REMARK   31  A    between atoms: _74  and  _76
REMARK   32  A    between atoms: _76  and  _77
REMARK   33  A    between atoms: _76  and  _79
REMARK   34  A    between atoms: _79  and  _80
REMARK   35  A    between atoms: _83  and  _85
REMARK   36  A    between atoms: _85  and  _86
REMARK   37  A    between atoms: _85  and  _88
REMARK   38  A    between atoms: _88  and  _89
REMARK   39  A    between atoms: _92  and  _94
REMARK   40  A    between atoms: _94  and  _95
REMARK   41  A    between atoms: _94  and  _97
REMARK   42  A    between atoms: _100  and  _102
REMARK   43  A    between atoms: _102  and  _103
REMARK   44  A    between atoms: _102  and  _105
REMARK   45  A    between atoms: _106  and  _107
REMARK   46  A    between atoms: _107  and  _108
REMARK   47  A    between atoms: _108  and  _109
REMARK   48  A    between atoms: _113  and  _115
REMARK   49  A    between atoms: _115  and  _116
REMARK   50  A    between atoms: _115  and  _118
REMARK   51  A    between atoms: _118  and  _119
REMARK   52  A    between atoms: _119  and  _120
REMARK   53  A    between atoms: _122  and  _124
REMARK   54  A    between atoms: _124  and  _125
REMARK   55  A    between atoms: _124  and  _127
REMARK   56  A    between atoms: _127  and  _128
REMARK   57  A    between atoms: _131  and  _133
REMARK   58  A    between atoms: _133  and  _134
REMARK   59  A    between atoms: _136  and  _138
REMARK   60  A    between atoms: _138  and  _139
REMARK   61  A    between atoms: _141  and  _143
REMARK   62  A    between atoms: _143  and  _144
REMARK   63  A    between atoms: _143  and  _146
REMARK   64  A    between atoms: _146  and  _147
REMARK   65  A    between atoms: _150  and  _152
REMARK   66  A    between atoms: _152  and  _153
REMARK   67  A    between atoms: _155  and  _157
REMARK   68  A    between atoms: _157  and  _158
REMARK   69  A    between atoms: _160  and  _162
REMARK   70  A    between atoms: _162  and  _163
REMARK   71  A    between atoms: _162  and  _165
REMARK   72  A    between atoms: _165  and  _166
REMARK   73  A    between atoms: _172  and  _174
REMARK   74  A    between atoms: _174  and  _175
REMARK   75  A    between atoms: _174  and  _177
REMARK   76  A    between atoms: _177  and  _178
REMARK   77  A    between atoms: _181  and  _183
REMARK   78  A    between atoms: _183  and  _184
REMARK   79  A    between atoms: _183  and  _186
REMARK   80  A    between atoms: _186  and  _187
REMARK   81  A    between atoms: _190  and  _192
REMARK   82  A    between atoms: _192  and  _193
REMARK   83  A    between atoms: _192  and  _195
REMARK   84  A    between atoms: _195  and  _196
REMARK   85  A    between atoms: _200  and  _201
REMARK   86  A    between atoms: _206  and  _208
REMARK   87  A    between atoms: _208  and  _209
REMARK   88  A    between atoms: _208  and  _211
REMARK   89  A    between atoms: _214  and  _216
REMARK   90  A    between atoms: _216  and  _217
REMARK   91  A    between atoms: _216  and  _219
REMARK   92  A    between atoms: _219  and  _220
REMARK   93  A    between atoms: _223  and  _225
REMARK   94  A    between atoms: _225  and  _226
REMARK   95  A    between atoms: _225  and  _228
REMARK   96  A    between atoms: _228  and  _229
REMARK   97  A    between atoms: _232  and  _234
REMARK   98  A    between atoms: _234  and  _235
REMARK   99  A    between atoms: _237  and  _239
REMARK  100  A    between atoms: _239  and  _240
REMARK  101  A    between atoms: _239  and  _242
REMARK  102  A    between atoms: _242  and  _243
REMARK  103  A    between atoms: _243  and  _244
REMARK  104  A    between atoms: _244  and  _245
REMARK  105  A    between atoms: _254  and  _256
REMARK  106  A    between atoms: _256  and  _257
REMARK  107  A    between atoms: _256  and  _259
REMARK  108  A    between atoms: _259  and  _260
REMARK  109  A    between atoms: _265  and  _267
REMARK  110  A    between atoms: _267  and  _268
REMARK  111  A    between atoms: _267  and  _270
REMARK  112  A    between atoms: _270  and  _271
REMARK  113  A    between atoms: _271  and  _272
REMARK  114  A    between atoms: _272  and  _273
REMARK  115  A    between atoms: _282  and  _284
REMARK  116  A    between atoms: _284  and  _285
REMARK  117  A    between atoms: _284  and  _287
REMARK  118  A    between atoms: _287  and  _288
REMARK  119  A    between atoms: _291  and  _293
REMARK  120  A    between atoms: _293  and  _294
REMARK  121  A    between atoms: _293  and  _296
REMARK  122  A    between atoms: _296  and  _297
REMARK  123  A    between atoms: _300  and  _302
REMARK  124  A    between atoms: _302  and  _303
REMARK  125  A    between atoms: _302  and  _305
REMARK  126  A    between atoms: _305  and  _306
REMARK  127  A    between atoms: _309  and  _311
REMARK  128  A    between atoms: _311  and  _312
REMARK  129  A    between atoms: _311  and  _314
REMARK  130  A    between atoms: _314  and  _315
REMARK  131  A    between atoms: _318  and  _320
REMARK  132  A    between atoms: _320  and  _321
REMARK  133  A    between atoms: _323  and  _325
REMARK  134  A    between atoms: _325  and  _326
REMARK  135  A    between atoms: _329  and  _331
REMARK  136  A    between atoms: _331  and  _332
REMARK  137  A    between atoms: _331  and  _334
REMARK  138  A    between atoms: _334  and  _335
REMARK  139  A    between atoms: _338  and  _340
REMARK  140  A    between atoms: _340  and  _341
REMARK  141  A    between atoms: _340  and  _343
REMARK  142  A    between atoms: _343  and  _344
REMARK  143  A    between atoms: _347  and  _349
REMARK  144  A    between atoms: _349  and  _350
REMARK  145  A    between atoms: _349  and  _352
REMARK  146  A    between atoms: _352  and  _353
REMARK  147  A    between atoms: _356  and  _358
REMARK  148  A    between atoms: _358  and  _359
REMARK  149  A    between atoms: _358  and  _361
REMARK  150  A    between atoms: _364  and  _366
REMARK  151  A    between atoms: _366  and  _367
REMARK  152  A    between atoms: _366  and  _369
REMARK  153  A    between atoms: _369  and  _370
REMARK  154  A    between atoms: _370  and  _371
REMARK  155  A    between atoms: _371  and  _372
REMARK  156  A    between atoms: _372  and  _373
REMARK  157  A    between atoms: _377  and  _379
REMARK  158  A    between atoms: _379  and  _380
REMARK  159  A    between atoms: _379  and  _382
REMARK  160  A    between atoms: _382  and  _383
REMARK  161  A    between atoms: _383  and  _384
REMARK  162  A    between atoms: _386  and  _388
REMARK  163  A    between atoms: _388  and  _389
REMARK  164  A    between atoms: _388  and  _391
REMARK  165  A    between atoms: _391  and  _392
REMARK  166  A    between atoms: _395  and  _397
REMARK  167  A    between atoms: _397  and  _398
REMARK  168  A    between atoms: _400  and  _402
REMARK  169  A    between atoms: _402  and  _403
REMARK  170  A    between atoms: _405  and  _407
REMARK  171  A    between atoms: _407  and  _408
REMARK  172  A    between atoms: _407  and  _410
REMARK  173  A    between atoms: _410  and  _411
REMARK  174  A    between atoms: _414  and  _416
REMARK  175  A    between atoms: _416  and  _417
REMARK  176  A    between atoms: _419  and  _421
REMARK  177  A    between atoms: _421  and  _422
REMARK  178  A    between atoms: _424  and  _426
REMARK  179  A    between atoms: _426  and  _427
REMARK  180  A    between atoms: _426  and  _429
REMARK  181  A    between atoms: _429  and  _430
REMARK  182  A    between atoms: _436  and  _438
REMARK  183  A    between atoms: _438  and  _439
REMARK  184  A    between atoms: _438  and  _441
REMARK  185  A    between atoms: _441  and  _442
REMARK  186  A    between atoms: _445  and  _447
REMARK  187  A    between atoms: _447  and  _448
REMARK  188  A    between atoms: _447  and  _450
REMARK  189  A    between atoms: _453  and  _455
REMARK  190  A    between atoms: _455  and  _456
REMARK  191  A    between atoms: _455  and  _458
REMARK  192  A    between atoms: _458  and  _459
REMARK  193  A    between atoms: _462  and  _464
REMARK  194  A    between atoms: _464  and  _465
REMARK  195  A    between atoms: _464  and  _467
REMARK  196  A    between atoms: _467  and  _468
REMARK  197  A    between atoms: _472  and  _473
REMARK  198  A    between atoms: _478  and  _480
REMARK  199  A    between atoms: _480  and  _481
REMARK  200  A    between atoms: _480  and  _483
REMARK  201  A    between atoms: _486  and  _488
REMARK  202  A    between atoms: _488  and  _489
REMARK  203  A    between atoms: _488  and  _491
REMARK  204  A    between atoms: _491  and  _492
REMARK  205  A    between atoms: _497  and  _499
REMARK  206  A    between atoms: _499  and  _500
REMARK  207  A    between atoms: _499  and  _502
REMARK  208  A    between atoms: _502  and  _503
REMARK  209  A    between atoms: _506  and  _508
REMARK  210  A    between atoms: _508  and  _509
REMARK  211  A    between atoms: _508  and  _511
REMARK  212  A    between atoms: _511  and  _512
REMARK  213  A    between atoms: _515  and  _517
REMARK  214  A    between atoms: _517  and  _518
REMARK  215  A    between atoms: _520  and  _522
REMARK  216  A    between atoms: _522  and  _523
REMARK  217  A    between atoms: _522  and  _525
REMARK  218  A    between atoms: _525  and  _526
REMARK  219  A    between atoms: _526  and  _527
REMARK  220  A    between atoms: _527  and  _528
REMARK                            x       y       z     vdW  Elec       q    Type
REMARK                         _______ _______ _______ _____ _____    ______ ____
ROOT
ATOM      1  CA  ARG A   4     -13.067  24.786  -7.537  0.00  0.00    +0.149 C 
ENDROOT
BRANCH   1   3
ATOM      2  C   GLY A   3     -14.375  22.773  -7.221  0.00  0.00    +0.243 C 
ATOM      3  N   ARG A   4     -13.237  23.443  -7.079  0.00  0.00    -0.297 N 
ATOM      4  H   ARG A   4     -12.435  22.970  -6.615  0.00  0.00    +0.150 HD
ATOM      5  O   GLY A   3     -15.325  23.141  -7.954  0.00  0.00    -0.273 OA
BRANCH   2   6
ATOM      6  CA  GLY A   3     -14.356  21.452  -6.522  0.00  0.00    +0.176 C 
BRANCH   6   9
ATOM      7  C   ILE A   2     -16.533  20.526  -5.930  0.00  0.00    +0.241 C 
ATOM      8  O   ILE A   2     -16.497  21.115  -4.873  0.00  0.00    -0.273 OA
ATOM      9  N   GLY A   3     -15.570  20.752  -6.814  0.00  0.00    -0.295 N 
ATOM     10  H   GLY A   3     -15.706  20.398  -7.782  0.00  0.00    +0.150 HD
BRANCH   7  11
ATOM     11  CA  ILE A   2     -17.730  19.599  -6.116  0.00  0.00    +0.148 C 
BRANCH  11  13
ATOM     12  C   ILE A   1     -17.021  17.438  -5.057  0.00  0.00    +0.238 C 
ATOM     13  N   ILE A   2     -17.609  18.669  -4.979  0.00  0.00    -0.297 N 
ATOM     14  H   ILE A   2     -17.995  18.968  -4.061  0.00  0.00    +0.150 HD
ATOM     15  O   ILE A   1     -16.720  16.968  -6.159  0.00  0.00    -0.274 OA
BRANCH  12  16
ATOM     16  CA  ILE A   1     -16.698  16.535  -3.854  0.00  0.00    +0.145 C 
BRANCH  16  17
ATOM     17  CB  ILE A   1     -15.129  16.213  -3.724  0.00  0.00    +0.025 C 
ATOM     18  CG2 ILE A   1     -14.289  17.447  -3.999  0.00  0.00    +0.002 C 
BRANCH  17  19
ATOM     19  CG1 ILE A   1     -14.857  15.516  -2.323  0.00  0.00    +0.002 C 
ATOM     20  CD1 ILE A   1     -13.565  14.640  -2.162  0.00  0.00    +0.000 C 
ENDBRANCH  17  19
ENDBRANCH  16  17
BRANCH  16  21
ATOM     21  N   ILE A   1     -17.369  15.248  -4.067  0.00  0.00    -0.238 NA
ATOM     22  H   ILE A   1     -16.975  14.646  -4.818  0.00  0.00    +0.142 HD
ENDBRANCH  16  21
ENDBRANCH  12  16
ENDBRANCH  11  13
BRANCH  11  23
ATOM     23  CB  ILE A   2     -18.991  20.415  -6.048  0.00  0.00    +0.027 C 
ATOM     24  CG2 ILE A   2     -18.990  21.418  -7.154  0.00  0.00    +0.002 C 
BRANCH  23  25
ATOM     25  CG1 ILE A   2     -20.188  19.571  -6.300  0.00  0.00    +0.002 C 
ATOM     26  CD1 ILE A   2     -20.129  18.617  -7.538  0.00  0.00    +0.000 C 
ENDBRANCH  23  25
ENDBRANCH  11  23
ENDBRANCH   7  11
ENDBRANCH   6   9
ENDBRANCH   2   6
ENDBRANCH   1   3
BRANCH   1  27
ATOM     27  C   ARG A   4     -13.327  24.984  -9.029  0.00  0.00    +0.241 C 
ATOM     28  O   ARG A   4     -13.775  26.075  -9.439  0.00  0.00    -0.273 OA
ATOM     29  N   ASN A   5     -13.155  24.008  -9.915  0.00  0.00    -0.298 N 
ATOM     30  H   ASN A   5     -12.775  23.084  -9.627  0.00  0.00    +0.150 HD
BRANCH  29  31
ATOM     31  CA  ASN A   5     -13.521  24.278 -11.326  0.00  0.00    +0.146 C 
BRANCH  31  32
ATOM     32  C   ASN A   5     -15.020  24.471 -11.597  0.00  0.00    +0.227 C 
ATOM     33  O   ASN A   5     -15.371  25.198 -12.534  0.00  0.00    -0.286 OA
ENDBRANCH  31  32
BRANCH  31  34
ATOM     34  CB  ASN A   5     -13.036  23.166 -12.231  0.00  0.00    +0.112 C 
BRANCH  34  35
ATOM     35  CG  ASN A   5     -13.597  21.810 -11.910  0.00  0.00    +0.222 C 
ATOM     36  OD1 ASN A   5     -13.739  21.436 -10.758  0.00  0.00    -0.275 OA
ATOM     37  ND2 ASN A   5     -13.945  20.986 -12.875  0.00  0.00    -0.329 N 
ATOM     38 HD21 ASN A   5     -14.328  20.047 -12.644  0.00  0.00    +0.145 HD
ATOM     39 HD22 ASN A   5     -13.837  21.274 -13.869  0.00  0.00    +0.145 HD
ENDBRANCH  34  35
ENDBRANCH  31  34
ENDBRANCH  29  31
ENDBRANCH   1  27
BRANCH   1  40
ATOM     40  CB  ARG A   4     -11.694  25.236  -7.172  0.00  0.00    +0.033 C 
BRANCH  40  41
ATOM     41  CG  ARG A   4     -11.584  25.936  -5.804  0.00  0.00    +0.045 C 
BRANCH  41  42
ATOM     42  CD  ARG A   4     -10.113  26.165  -5.366  0.00  0.00    +0.174 C 
BRANCH  42  43
ATOM     43  NE  ARG A   4      -9.471  26.944  -6.388  0.00  0.00    -0.265 N 
ATOM     44  HE  ARG A   4      -9.783  27.922  -6.551  0.00  0.00    +0.259 HD
ATOM     45  CZ  ARG A   4      -8.497  26.450  -7.123  0.00  0.00    +0.342 C 
ATOM     46  NH2 ARG A   4      -7.865  25.358  -6.881  0.00  0.00    -0.292 N 
ATOM     47 HH21 ARG A   4      -8.112  24.788  -6.047  0.00  0.00    +0.255 HD
ATOM     48 HH22 ARG A   4      -7.106  25.044  -7.519  0.00  0.00    +0.255 HD
ATOM     49  NH1 ARG A   4      -7.926  27.084  -8.088  0.00  0.00    -0.292 N 
ATOM     50 HH11 ARG A   4      -8.230  28.049  -8.328  0.00  0.00    +0.255 HD
ATOM     51 HH12 ARG A   4      -7.161  26.631  -8.627  0.00  0.00    +0.255 HD
ENDBRANCH  42  43
ENDBRANCH  41  42
ENDBRANCH  40  41
ENDBRANCH   1  40
TORSDOF 20
REMARK  Name = ../refined-set-2016/1aaq/1aaq_pocket.pdb
REMARK  220 active torsions:
REMARK  status: ('A' for Active; 'I' for Inactive)
REMARK    1  A    between atoms: _1  and  _3
REMARK    2  A    between atoms: _3  and  _4
REMARK    3  A    between atoms: _3  and  _6
REMARK    4  A    between atoms: _6  and  _7
REMARK    5  A    between atoms: _7  and  _8
REMARK    6  A    between atoms: _8  and  _9
REMARK    7  A    between atoms: _18  and  _20
REMARK    8  A    between atoms: _20  and  _21
REMARK    9  A    between atoms: _20  and  _23
REMARK   10  A    between atoms: _23  and  _24
REMARK   11  A    between atoms: _27  and  _29
REMARK   12  A    between atoms: _29  and  _30
REMARK   13  A    between atoms: _29  and  _32
REMARK   14  A    between atoms: _32  and  _33
REMARK   15  A    between atoms: _36  and  _38
REMARK   16  A    between atoms: _38  and  _39
REMARK   17  A    between atoms: _38  and  _41
REMARK   18  A    between atoms: _41  and  _42
REMARK   19  A    between atoms: _45  and  _47
REMARK   20  A    between atoms: _47  and  _48
REMARK   21  A    between atoms: _47  and  _50
REMARK   22  A    between atoms: _50  and  _51
REMARK   23  A    between atoms: _54  and  _56
REMARK   24  A    between atoms: _56  and  _57
REMARK   25  A    between atoms: _59  and  _61
REMARK   26  A    between atoms: _61  and  _62
REMARK   27  A    between atoms: _65  and  _67
REMARK   28  A    between atoms: _67  and  _68
REMARK   29  A    between atoms: _67  and  _70
REMARK   30  A    between atoms: _70  and  _71
REMARK   31  A    between atoms: _74  and  _76
REMARK   32  A    between atoms: _76  and  _77
REMARK   33  A    between atoms: _76  and  _79
REMARK   34  A    between atoms: _79  and  _80
REMARK   35  A    between atoms: _83  and  _85
REMARK   36  A    between atoms: _85  and  _86
REMARK   37  A    between atoms: _85  and  _88
REMARK   38  A    between atoms: _88  and  _89
REMARK   39  A    between atoms: _92  and  _94
REMARK   40  A    between atoms: _94  and  _95
REMARK   41  A    between atoms: _94  and  _97
REMARK   42  A    between atoms: _100  and  _102
REMARK   43  A    between atoms: _102  and  _103
REMARK   44  A    between atoms: _102  and  _105
REMARK   45  A    between atoms: _106  and  _107
REMARK   46  A    between atoms: _107  and  _108
REMARK   47  A    between atoms: _108  and  _109
REMARK   48  A    between atoms: _113  and  _115
REMARK   49  A    between atoms: _115  and  _116
REMARK   50  A    between atoms: _115  and  _118
REMARK   51  A    between atoms: _118  and  _119
REMARK   52  A    between atoms: _119  and  _120
REMARK   53  A    between atoms: _122  and  _124
REMARK   54  A    between atoms: _124  and  _125
REMARK   55  A    between atoms: _124  and  _127
REMARK   56  A    between atoms: _127  and  _128
REMARK   57  A    between atoms: _131  and  _133
REMARK   58  A    between atoms: _133  and  _134
REMARK   59  A    between atoms: _136  and  _138
REMARK   60  A    between atoms: _138  and  _139
REMARK   61  A    between atoms: _141  and  _143
REMARK   62  A    between atoms: _143  and  _144
REMARK   63  A    between atoms: _143  and  _146
REMARK   64  A    between atoms: _146  and  _147
REMARK   65  A    between atoms: _150  and  _152
REMARK   66  A    between atoms: _152  and  _153
REMARK   67  A    between atoms: _155  and  _157
REMARK   68  A    between atoms: _157  and  _158
REMARK   69  A    between atoms: _160  and  _162
REMARK   70  A    between atoms: _162  and  _163
REMARK   71  A    between atoms: _162  and  _165
REMARK   72  A    between atoms: _165  and  _166
REMARK   73  A    between atoms: _172  and  _174
REMARK   74  A    between atoms: _174  and  _175
REMARK   75  A    between atoms: _174  and  _177
REMARK   76  A    between atoms: _177  and  _178
REMARK   77  A    between atoms: _181  and  _183
REMARK   78  A    between atoms: _183  and  _184
REMARK   79  A    between atoms: _183  and  _186
REMARK   80  A    between atoms: _186  and  _187
REMARK   81  A    between atoms: _190  and  _192
REMARK   82  A    between atoms: _192  and  _193
REMARK   83  A    between atoms: _192  and  _195
REMARK   84  A    between atoms: _195  and  _196
REMARK   85  A    between atoms: _200  and  _201
REMARK   86  A    between atoms: _206  and  _208
REMARK   87  A    between atoms: _208  and  _209
REMARK   88  A    between atoms: _208  and  _211
REMARK   89  A    between atoms: _214  and  _216
REMARK   90  A    between atoms: _216  and  _217
REMARK   91  A    between atoms: _216  and  _219
REMARK   92  A    between atoms: _219  and  _220
REMARK   93  A    between atoms: _223  and  _225
REMARK   94  A    between atoms: _225  and  _226
REMARK   95  A    between atoms: _225  and  _228
REMARK   96  A    between atoms: _228  and  _229
REMARK   97  A    between atoms: _232  and  _234
REMARK   98  A    between atoms: _234  and  _235
REMARK   99  A    between atoms: _237  and  _239
REMARK  100  A    between atoms: _239  and  _240
REMARK  101  A    between atoms: _239  and  _242
REMARK  102  A    between atoms: _242  and  _243
REMARK  103  A    between atoms: _243  and  _244
REMARK  104  A    between atoms: _244  and  _245
REMARK  105  A    between atoms: _254  and  _256
REMARK  106  A    between atoms: _256  and  _257
REMARK  107  A    between atoms: _256  and  _259
REMARK  108  A    between atoms: _259  and  _260
REMARK  109  A    between atoms: _265  and  _267
REMARK  110  A    between atoms: _267  and  _268
REMARK  111  A    between atoms: _267  and  _270
REMARK  112  A    between atoms: _270  and  _271
REMARK  113  A    between atoms: _271  and  _272
REMARK  114  A    between atoms: _272  and  _273
REMARK  115  A    between atoms: _282  and  _284
REMARK  116  A    between atoms: _284  and  _285
REMARK  117  A    between atoms: _284  and  _287
REMARK  118  A    between atoms: _287  and  _288
REMARK  119  A    between atoms: _291  and  _293
REMARK  120  A    between atoms: _293  and  _294
REMARK  121  A    between atoms: _293  and  _296
REMARK  122  A    between atoms: _296  and  _297
REMARK  123  A    between atoms: _300  and  _302
REMARK  124  A    between atoms: _302  and  _303
REMARK  125  A    between atoms: _302  and  _305
REMARK  126  A    between atoms: _305  and  _306
REMARK  127  A    between atoms: _309  and  _311
REMARK  128  A    between atoms: _311  and  _312
REMARK  129  A    between atoms: _311  and  _314
REMARK  130  A    between atoms: _314  and  _315
REMARK  131  A    between atoms: _318  and  _320
REMARK  132  A    between atoms: _320  and  _321
REMARK  133  A    between atoms: _323  and  _325
REMARK  134  A    between atoms: _325  and  _326
REMARK  135  A    between atoms: _329  and  _331
REMARK  136  A    between atoms: _331  and  _332
REMARK  137  A    between atoms: _331  and  _334
REMARK  138  A    between atoms: _334  and  _335
REMARK  139  A    between atoms: _338  and  _340
REMARK  140  A    between atoms: _340  and  _341
REMARK  141  A    between atoms: _340  and  _343
REMARK  142  A    between atoms: _343  and  _344
REMARK  143  A    between atoms: _347  and  _349
REMARK  144  A    between atoms: _349  and  _350
REMARK  145  A    between atoms: _349  and  _352
REMARK  146  A    between atoms: _352  and  _353
REMARK  147  A    between atoms: _356  and  _358
REMARK  148  A    between atoms: _358  and  _359
REMARK  149  A    between atoms: _358  and  _361
REMARK  150  A    between atoms: _364  and  _366
REMARK  151  A    between atoms: _366  and  _367
REMARK  152  A    between atoms: _366  and  _369
REMARK  153  A    between atoms: _369  and  _370
REMARK  154  A    between atoms: _370  and  _371
REMARK  155  A    between atoms: _371  and  _372
REMARK  156  A    between atoms: _372  and  _373
REMARK  157  A    between atoms: _377  and  _379
REMARK  158  A    between atoms: _379  and  _380
REMARK  159  A    between atoms: _379  and  _382
REMARK  160  A    between atoms: _382  and  _383
REMARK  161  A    between atoms: _383  and  _384
REMARK  162  A    between atoms: _386  and  _388
REMARK  163  A    between atoms: _388  and  _389
REMARK  164  A    between atoms: _388  and  _391
REMARK  165  A    between atoms: _391  and  _392
REMARK  166  A    between atoms: _395  and  _397
REMARK  167  A    between atoms: _397  and  _398
REMARK  168  A    between atoms: _400  and  _402
REMARK  169  A    between atoms: _402  and  _403
REMARK  170  A    between atoms: _405  and  _407
REMARK  171  A    between atoms: _407  and  _408
REMARK  172  A    between atoms: _407  and  _410
REMARK  173  A    between atoms: _410  and  _411
REMARK  174  A    between atoms: _414  and  _416
REMARK  175  A    between atoms: _416  and  _417
REMARK  176  A    between atoms: _419  and  _421
REMARK  177  A    between atoms: _421  and  _422
REMARK  178  A    between atoms: _424  and  _426
REMARK  179  A    between atoms: _426  and  _427
REMARK  180  A    between atoms: _426  and  _429
REMARK  181  A    between atoms: _429  and  _430
REMARK  182  A    between atoms: _436  and  _438
REMARK  183  A    between atoms: _438  and  _439
REMARK  184  A    between atoms: _438  and  _441
REMARK  185  A    between atoms: _441  and  _442
REMARK  186  A    between atoms: _445  and  _447
REMARK  187  A    between atoms: _447  and  _448
REMARK  188  A    between atoms: _447  and  _450
REMARK  189  A    between atoms: _453  and  _455
REMARK  190  A    between atoms: _455  and  _456
REMARK  191  A    between atoms: _455  and  _458
REMARK  192  A    between atoms: _458  and  _459
REMARK  193  A    between atoms: _462  and  _464
REMARK  194  A    between atoms: _464  and  _465
REMARK  195  A    between atoms: _464  and  _467
REMARK  196  A    between atoms: _467  and  _468
REMARK  197  A    between atoms: _472  and  _473
REMARK  198  A    between atoms: _478  and  _480
REMARK  199  A    between atoms: _480  and  _481
REMARK  200  A    between atoms: _480  and  _483
REMARK  201  A    between atoms: _486  and  _488
REMARK  202  A    between atoms: _488  and  _489
REMARK  203  A    between atoms: _488  and  _491
REMARK  204  A    between atoms: _491  and  _492
REMARK  205  A    between atoms: _497  and  _499
REMARK  206  A    between atoms: _499  and  _500
REMARK  207  A    between atoms: _499  and  _502
REMARK  208  A    between atoms: _502  and  _503
REMARK  209  A    between atoms: _506  and  _508
REMARK  210  A    between atoms: _508  and  _509
REMARK  211  A    between atoms: _508  and  _511
REMARK  212  A    between atoms: _511  and  _512
REMARK  213  A    between atoms: _515  and  _517
REMARK  214  A    between atoms: _517  and  _518
REMARK  215  A    between atoms: _520  and  _522
REMARK  216  A    between atoms: _522  and  _523
REMARK  217  A    between atoms: _522  and  _525
REMARK  218  A    between atoms: _525  and  _526
REMARK  219  A    between atoms: _526  and  _527
REMARK  220  A    between atoms: _527  and  _528
REMARK                            x       y       z     vdW  Elec       q    Type
REMARK                         _______ _______ _______ _____ _____    ______ ____
ROOT
ATOM      1  NE  ARG A   1      -3.987  24.219  -4.682  0.00  0.00    -0.265 N 
ATOM      2  CZ  ARG A   1      -3.167  23.233  -4.315  0.00  0.00    +0.342 C 
ATOM      3  NH2 ARG A   1      -2.482  23.237  -3.174  0.00  0.00    -0.292 N 
ATOM      4 HH21 ARG A   1      -2.572  24.038  -2.516  0.00  0.00    +0.255 HD
ATOM      5 HH22 ARG A   1      -1.857  22.440  -2.940  0.00  0.00    +0.255 HD
ATOM      6  NH1 ARG A   1      -3.034  22.215  -5.154  0.00  0.00    -0.292 N 
ATOM      7 HH11 ARG A   1      -2.406  21.422  -4.913  0.00  0.00    +0.255 HD
ATOM      8 HH12 ARG A   1      -3.557  22.210  -6.053  0.00  0.00    +0.255 HD
ATOM      9  HE  ARG A   1      -4.472  24.128  -5.597  0.00  0.00    +0.259 HD
ENDROOT
BRANCH   1  10
ATOM     10  CD  ARG A   1      -4.249  25.406  -3.897  0.00  0.00    +0.174 C 
BRANCH  10  11
ATOM     11  CG  ARG A   1      -5.434  26.205  -4.426  0.00  0.00    +0.044 C 
BRANCH  11  12
ATOM     12  CB  ARG A   1      -5.535  27.530  -3.697  0.00  0.00    +0.023 C 
BRANCH  12  13
ATOM     13  CA  ARG A   1      -6.767  28.277  -4.087  0.00  0.00    +0.102 C 
BRANCH  13  14
ATOM     14  N   ARG A   1      -6.616  28.913  -5.372  0.00  0.00    -0.244 NA
ATOM     15  H   ARG A   1      -5.791  28.677  -5.960  0.00  0.00    +0.141 HD
ENDBRANCH  13  14
BRANCH  13  16
ATOM     16  C   ARG A   1      -6.982  29.327  -3.019  0.00  0.00    +0.199 C 
ATOM     17  O   ARG A   1      -6.169  30.259  -3.062  0.00  0.00    -0.219 OA
ENDBRANCH  13  16
ENDBRANCH  12  13
ENDBRANCH  11  12
ENDBRANCH  10  11
ENDBRANCH   1  10
TORSDOF 6
REMARK  Name = ../refined-set-2016/1aaq/1aaq_pocket.pdb
REMARK  220 active torsions:
REMARK  status: ('A' for Active; 'I' for Inactive)
REMARK    1  A    between atoms: _1  and  _3
REMARK    2  A    between atoms: _3  and  _4
REMARK    3  A    between atoms: _3  and  _6
REMARK    4  A    between atoms: _6  and  _7
REMARK    5  A    between atoms: _7  and  _8
REMARK    6  A    between atoms: _8  and  _9
REMARK    7  A    between atoms: _18  and  _20
REMARK    8  A    between atoms: _20  and  _21
REMARK    9  A    between atoms: _20  and  _23
REMARK   10  A    between atoms: _23  and  _24
REMARK   11  A    between atoms: _27  and  _29
REMARK   12  A    between atoms: _29  and  _30
REMARK   13  A    between atoms: _29  and  _32
REMARK   14  A    between atoms: _32  and  _33
REMARK   15  A    between atoms: _36  and  _38
REMARK   16  A    between atoms: _38  and  _39
REMARK   17  A    between atoms: _38  and  _41
REMARK   18  A    between atoms: _41  and  _42
REMARK   19  A    between atoms: _45  and  _47
REMARK   20  A    between atoms: _47  and  _48
REMARK   21  A    between atoms: _47  and  _50
REMARK   22  A    between atoms: _50  and  _51
REMARK   23  A    between atoms: _54  and  _56
REMARK   24  A    between atoms: _56  and  _57
REMARK   25  A    between atoms: _59  and  _61
REMARK   26  A    between atoms: _61  and  _62
REMARK   27  A    between atoms: _65  and  _67
REMARK   28  A    between atoms: _67  and  _68
REMARK   29  A    between atoms: _67  and  _70
REMARK   30  A    between atoms: _70  and  _71
REMARK   31  A    between atoms: _74  and  _76
REMARK   32  A    between atoms: _76  and  _77
REMARK   33  A    between atoms: _76  and  _79
REMARK   34  A    between atoms: _79  and  _80
REMARK   35  A    between atoms: _83  and  _85
REMARK   36  A    between atoms: _85  and  _86
REMARK   37  A    between atoms: _85  and  _88
REMARK   38  A    between atoms: _88  and  _89
REMARK   39  A    between atoms: _92  and  _94
REMARK   40  A    between atoms: _94  and  _95
REMARK   41  A    between atoms: _94  and  _97
REMARK   42  A    between atoms: _100  and  _102
REMARK   43  A    between atoms: _102  and  _103
REMARK   44  A    between atoms: _102  and  _105
REMARK   45  A    between atoms: _106  and  _107
REMARK   46  A    between atoms: _107  and  _108
REMARK   47  A    between atoms: _108  and  _109
REMARK   48  A    between atoms: _113  and  _115
REMARK   49  A    between atoms: _115  and  _116
REMARK   50  A    between atoms: _115  and  _118
REMARK   51  A    between atoms: _118  and  _119
REMARK   52  A    between atoms: _119  and  _120
REMARK   53  A    between atoms: _122  and  _124
REMARK   54  A    between atoms: _124  and  _125
REMARK   55  A    between atoms: _124  and  _127
REMARK   56  A    between atoms: _127  and  _128
REMARK   57  A    between atoms: _131  and  _133
REMARK   58  A    between atoms: _133  and  _134
REMARK   59  A    between atoms: _136  and  _138
REMARK   60  A    between atoms: _138  and  _139
REMARK   61  A    between atoms: _141  and  _143
REMARK   62  A    between atoms: _143  and  _144
REMARK   63  A    between atoms: _143  and  _146
REMARK   64  A    between atoms: _146  and  _147
REMARK   65  A    between atoms: _150  and  _152
REMARK   66  A    between atoms: _152  and  _153
REMARK   67  A    between atoms: _155  and  _157
REMARK   68  A    between atoms: _157  and  _158
REMARK   69  A    between atoms: _160  and  _162
REMARK   70  A    between atoms: _162  and  _163
REMARK   71  A    between atoms: _162  and  _165
REMARK   72  A    between atoms: _165  and  _166
REMARK   73  A    between atoms: _172  and  _174
REMARK   74  A    between atoms: _174  and  _175
REMARK   75  A    between atoms: _174  and  _177
REMARK   76  A    between atoms: _177  and  _178
REMARK   77  A    between atoms: _181  and  _183
REMARK   78  A    between atoms: _183  and  _184
REMARK   79  A    between atoms: _183  and  _186
REMARK   80  A    between atoms: _186  and  _187
REMARK   81  A    between atoms: _190  and  _192
REMARK   82  A    between atoms: _192  and  _193
REMARK   83  A    between atoms: _192  and  _195
REMARK   84  A    between atoms: _195  and  _196
REMARK   85  A    between atoms: _200  and  _201
REMARK   86  A    between atoms: _206  and  _208
REMARK   87  A    between atoms: _208  and  _209
REMARK   88  A    between atoms: _208  and  _211
REMARK   89  A    between atoms: _214  and  _216
REMARK   90  A    between atoms: _216  and  _217
REMARK   91  A    between atoms: _216  and  _219
REMARK   92  A    between atoms: _219  and  _220
REMARK   93  A    between atoms: _223  and  _225
REMARK   94  A    between atoms: _225  and  _226
REMARK   95  A    between atoms: _225  and  _228
REMARK   96  A    between atoms: _228  and  _229
REMARK   97  A    between atoms: _232  and  _234
REMARK   98  A    between atoms: _234  and  _235
REMARK   99  A    between atoms: _237  and  _239
REMARK  100  A    between atoms: _239  and  _240
REMARK  101  A    between atoms: _239  and  _242
REMARK  102  A    between atoms: _242  and  _243
REMARK  103  A    between atoms: _243  and  _244
REMARK  104  A    between atoms: _244  and  _245
REMARK  105  A    between atoms: _254  and  _256
REMARK  106  A    between atoms: _256  and  _257
REMARK  107  A    between atoms: _256  and  _259
REMARK  108  A    between atoms: _259  and  _260
REMARK  109  A    between atoms: _265  and  _267
REMARK  110  A    between atoms: _267  and  _268
REMARK  111  A    between atoms: _267  and  _270
REMARK  112  A    between atoms: _270  and  _271
REMARK  113  A    between atoms: _271  and  _272
REMARK  114  A    between atoms: _272  and  _273
REMARK  115  A    between atoms: _282  and  _284
REMARK  116  A    between atoms: _284  and  _285
REMARK  117  A    between atoms: _284  and  _287
REMARK  118  A    between atoms: _287  and  _288
REMARK  119  A    between atoms: _291  and  _293
REMARK  120  A    between atoms: _293  and  _294
REMARK  121  A    between atoms: _293  and  _296
REMARK  122  A    between atoms: _296  and  _297
REMARK  123  A    between atoms: _300  and  _302
REMARK  124  A    between atoms: _302  and  _303
REMARK  125  A    between atoms: _302  and  _305
REMARK  126  A    between atoms: _305  and  _306
REMARK  127  A    between atoms: _309  and  _311
REMARK  128  A    between atoms: _311  and  _312
REMARK  129  A    between atoms: _311  and  _314
REMARK  130  A    between atoms: _314  and  _315
REMARK  131  A    between atoms: _318  and  _320
REMARK  132  A    between atoms: _320  and  _321
REMARK  133  A    between atoms: _323  and  _325
REMARK  134  A    between atoms: _325  and  _326
REMARK  135  A    between atoms: _329  and  _331
REMARK  136  A    between atoms: _331  and  _332
REMARK  137  A    between atoms: _331  and  _334
REMARK  138  A    between atoms: _334  and  _335
REMARK  139  A    between atoms: _338  and  _340
REMARK  140  A    between atoms: _340  and  _341
REMARK  141  A    between atoms: _340  and  _343
REMARK  142  A    between atoms: _343  and  _344
REMARK  143  A    between atoms: _347  and  _349
REMARK  144  A    between atoms: _349  and  _350
REMARK  145  A    between atoms: _349  and  _352
REMARK  146  A    between atoms: _352  and  _353
REMARK  147  A    between atoms: _356  and  _358
REMARK  148  A    between atoms: _358  and  _359
REMARK  149  A    between atoms: _358  and  _361
REMARK  150  A    between atoms: _364  and  _366
REMARK  151  A    between atoms: _366  and  _367
REMARK  152  A    between atoms: _366  and  _369
REMARK  153  A    between atoms: _369  and  _370
REMARK  154  A    between atoms: _370  and  _371
REMARK  155  A    between atoms: _371  and  _372
REMARK  156  A    between atoms: _372  and  _373
REMARK  157  A    between atoms: _377  and  _379
REMARK  158  A    between atoms: _379  and  _380
REMARK  159  A    between atoms: _379  and  _382
REMARK  160  A    between atoms: _382  and  _383
REMARK  161  A    between atoms: _383  and  _384
REMARK  162  A    between atoms: _386  and  _388
REMARK  163  A    between atoms: _388  and  _389
REMARK  164  A    between atoms: _388  and  _391
REMARK  165  A    between atoms: _391  and  _392
REMARK  166  A    between atoms: _395  and  _397
REMARK  167  A    between atoms: _397  and  _398
REMARK  168  A    between atoms: _400  and  _402
REMARK  169  A    between atoms: _402  and  _403
REMARK  170  A    between atoms: _405  and  _407
REMARK  171  A    between atoms: _407  and  _408
REMARK  172  A    between atoms: _407  and  _410
REMARK  173  A    between atoms: _410  and  _411
REMARK  174  A    between atoms: _414  and  _416
REMARK  175  A    between atoms: _416  and  _417
REMARK  176  A    between atoms: _419  and  _421
REMARK  177  A    between atoms: _421  and  _422
REMARK  178  A    between atoms: _424  and  _426
REMARK  179  A    between atoms: _426  and  _427
REMARK  180  A    between atoms: _426  and  _429
REMARK  181  A    between atoms: _429  and  _430
REMARK  182  A    between atoms: _436  and  _438
REMARK  183  A    between atoms: _438  and  _439
REMARK  184  A    between atoms: _438  and  _441
REMARK  185  A    between atoms: _441  and  _442
REMARK  186  A    between atoms: _445  and  _447
REMARK  187  A    between atoms: _447  and  _448
REMARK  188  A    between atoms: _447  and  _450
REMARK  189  A    between atoms: _453  and  _455
REMARK  190  A    between atoms: _455  and  _456
REMARK  191  A    between atoms: _455  and  _458
REMARK  192  A    between atoms: _458  and  _459
REMARK  193  A    between atoms: _462  and  _464
REMARK  194  A    between atoms: _464  and  _465
REMARK  195  A    between atoms: _464  and  _467
REMARK  196  A    between atoms: _467  and  _468
REMARK  197  A    between atoms: _472  and  _473
REMARK  198  A    between atoms: _478  and  _480
REMARK  199  A    between atoms: _480  and  _481
REMARK  200  A    between atoms: _480  and  _483
REMARK  201  A    between atoms: _486  and  _488
REMARK  202  A    between atoms: _488  and  _489
REMARK  203  A    between atoms: _488  and  _491
REMARK  204  A    between atoms: _491  and  _492
REMARK  205  A    between atoms: _497  and  _499
REMARK  206  A    between atoms: _499  and  _500
REMARK  207  A    between atoms: _499  and  _502
REMARK  208  A    between atoms: _502  and  _503
REMARK  209  A    between atoms: _506  and  _508
REMARK  210  A    between atoms: _508  and  _509
REMARK  211  A    between atoms: _508  and  _511
REMARK  212  A    between atoms: _511  and  _512
REMARK  213  A    between atoms: _515  and  _517
REMARK  214  A    between atoms: _517  and  _518
REMARK  215  A    between atoms: _520  and  _522
REMARK  216  A    between atoms: _522  and  _523
REMARK  217  A    between atoms: _522  and  _525
REMARK  218  A    between atoms: _525  and  _526
REMARK  219  A    between atoms: _526  and  _527
REMARK  220  A    between atoms: _527  and  _528
REMARK                            x       y       z     vdW  Elec       q    Type
REMARK                         _______ _______ _______ _____ _____    ______ ____
ROOT
ATOM      1  C   GLY A   5     -14.071  19.235   4.123  0.00  0.00    +0.243 C 
ATOM      2  N   ALA A   6     -13.510  19.942   5.136  0.00  0.00    -0.297 N 
ATOM      3  H   ALA A   6     -13.678  20.968   5.160  0.00  0.00    +0.150 HD
ATOM      4  O   GLY A   5     -13.744  18.071   3.907  0.00  0.00    -0.273 OA
ENDROOT
BRANCH   2   5
ATOM      5  CA  ALA A   6     -12.687  19.364   6.195  0.00  0.00    +0.149 C 
ATOM      6  CB  ALA A   6     -11.303  19.991   6.200  0.00  0.00    +0.031 C 
BRANCH   5   7
ATOM      7  C   ALA A   6     -13.369  19.668   7.532  0.00  0.00    +0.241 C 
ATOM      8  N   ASP A   7     -13.648  18.631   8.296  0.00  0.00    -0.297 N 
ATOM      9  H   ASP A   7     -13.415  17.663   7.997  0.00  0.00    +0.150 HD
ATOM     10  O   ALA A   6     -13.740  20.793   7.867  0.00  0.00    -0.273 OA
BRANCH   8  11
ATOM     11  CA  ASP A   7     -14.297  18.893   9.578  0.00  0.00    +0.160 C 
BRANCH  11  12
ATOM     12  C   ASP A   7     -13.348  19.331  10.660  0.00  0.00    +0.241 C 
ATOM     13  O   ASP A   7     -13.786  20.089  11.560  0.00  0.00    -0.273 OA
ATOM     14  N   ASP A   8     -12.055  18.915  10.456  0.00  0.00    -0.297 N 
ATOM     15  H   ASP A   8     -11.844  18.438   9.556  0.00  0.00    +0.150 HD
BRANCH  14  16
ATOM     16  CA  ASP A   8     -10.951  19.086  11.397  0.00  0.00    +0.160 C 
BRANCH  16  17
ATOM     17  C   ASP A   8      -9.895  19.996  10.777  0.00  0.00    +0.241 C 
ATOM     18  N   THR A   9      -9.100  20.678  11.587  0.00  0.00    -0.295 N 
ATOM     19  H   THR A   9      -9.248  20.610  12.614  0.00  0.00    +0.150 HD
ATOM     20  O   ASP A   8      -9.815  20.108   9.560  0.00  0.00    -0.273 OA
BRANCH  18  21
ATOM     21  CA  THR A   9      -8.034  21.514  11.087  0.00  0.00    +0.176 C 
BRANCH  21  22
ATOM     22  C   THR A   9      -6.771  20.657  11.076  0.00  0.00    +0.243 C 
ATOM     23  O   THR A   9      -6.400  20.238  12.155  0.00  0.00    -0.273 OA
ATOM     24  N   VAL A  10      -6.038  20.338  10.014  0.00  0.00    -0.298 N 
ATOM     25  H   VAL A  10      -6.280  20.776   9.102  0.00  0.00    +0.150 HD
BRANCH  24  26
ATOM     26  CA  VAL A  10      -4.913  19.409  10.054  0.00  0.00    +0.137 C 
BRANCH  26  27
ATOM     27  CB  VAL A  10      -5.013  18.252   9.050  0.00  0.00    +0.026 C 
ATOM     28  CG2 VAL A  10      -3.832  17.344   9.300  0.00  0.00    +0.002 C 
ATOM     29  CG1 VAL A  10      -6.289  17.478   9.196  0.00  0.00    +0.002 C 
ENDBRANCH  26  27
BRANCH  26  30
ATOM     30  C   VAL A  10      -3.764  20.256   9.591  0.00  0.00    +0.227 C 
ATOM     31  O   VAL A  10      -3.957  20.868   8.539  0.00  0.00    -0.286 OA
ENDBRANCH  26  30
ENDBRANCH  24  26
ENDBRANCH  21  22
BRANCH  21  32
ATOM     32  CB  THR A   9      -8.007  22.658  12.051  0.00  0.00    +0.137 C 
ATOM     33  CG2 THR A   9      -6.773  23.476  12.013  0.00  0.00    +0.034 C 
BRANCH  32  34
ATOM     34  OG1 THR A   9      -9.210  23.357  11.759  0.00  0.00    -0.382 OA
ATOM     35  HG1 THR A   9      -9.983  22.756  11.905  0.00  0.00    +0.210 HD
ENDBRANCH  32  34
ENDBRANCH  21  32
ENDBRANCH  18  21
ENDBRANCH  16  17
BRANCH  16  36
ATOM     36  CB  ASP A   8     -10.350  17.748  11.691  0.00  0.00    +0.143 C 
BRANCH  36  37
ATOM     37  CG  ASP A   8     -11.395  16.773  12.193  0.00  0.00    +0.367 C 
ATOM     38  OD2 ASP A   8     -12.075  17.075  13.178  0.00  0.00    -0.246 OA
ATOM     39  OD1 ASP A   8     -11.557  15.713  11.581  0.00  0.00    -0.246 OA
ENDBRANCH  36  37
ENDBRANCH  16  36
ENDBRANCH  14  16
ENDBRANCH  11  12
BRANCH  11  40
ATOM     40  CB  ASP A   7     -14.971  17.706  10.116  0.00  0.00    +0.143 C 
BRANCH  40  41
ATOM     41  CG  ASP A   7     -15.613  16.946   8.996  0.00  0.00    +0.367 C 
ATOM     42  OD2 ASP A   7     -15.296  15.772   8.909  0.00  0.00    -0.246 OA
ATOM     43  OD1 ASP A   7     -16.360  17.513   8.197  0.00  0.00    -0.246 OA
ENDBRANCH  40  41
ENDBRANCH  11  40
ENDBRANCH   8  11
ENDBRANCH   5   7
ENDBRANCH   2   5
BRANCH   1  44
ATOM     44  CA  GLY A   5     -14.982  19.978   3.151  0.00  0.00    +0.176 C 
BRANCH  44  47
ATOM     45  C   THR A   4     -15.436  22.330   3.675  0.00  0.00    +0.243 C 
ATOM     46  O   THR A   4     -16.389  21.900   4.339  0.00  0.00    -0.273 OA
ATOM     47  N   GLY A   5     -14.671  21.428   3.064  0.00  0.00    -0.295 N 
ATOM     48  H   GLY A   5     -13.844  21.743   2.518  0.00  0.00    +0.150 HD
BRANCH  45  49
ATOM     49  CA  THR A   4     -15.083  23.803   3.635  0.00  0.00    +0.176 C 
BRANCH  49  52
ATOM     50  C   ASP A   3     -12.654  23.931   3.910  0.00  0.00    +0.241 C 
ATOM     51  O   ASP A   3     -12.773  23.463   5.045  0.00  0.00    -0.273 OA
ATOM     52  N   THR A   4     -13.747  24.077   3.132  0.00  0.00    -0.295 N 
ATOM     53  H   THR A   4     -13.631  24.393   2.148  0.00  0.00    +0.150 HD
BRANCH  50  54
ATOM     54  CA  ASP A   3     -11.261  24.157   3.399  0.00  0.00    +0.160 C 
BRANCH  54  56
ATOM     55  C   LEU A   2     -10.414  26.376   3.273  0.00  0.00    +0.241 C 
ATOM     56  N   ASP A   3     -10.717  25.316   3.998  0.00  0.00    -0.297 N 
ATOM     57  H   ASP A   3     -10.553  25.334   5.025  0.00  0.00    +0.150 HD
ATOM     58  O   LEU A   2     -10.835  26.447   2.136  0.00  0.00    -0.273 OA
BRANCH  55  59
ATOM     59  CA  LEU A   2      -9.630  27.536   3.859  0.00  0.00    +0.149 C 
BRANCH  59  62
ATOM     60  C   LEU A   1      -7.383  26.690   3.455  0.00  0.00    +0.238 C 
ATOM     61  O   LEU A   1      -7.605  25.781   4.243  0.00  0.00    -0.274 OA
ATOM     62  N   LEU A   2      -8.317  27.615   3.269  0.00  0.00    -0.297 N 
ATOM     63  H   LEU A   2      -8.091  28.435   2.670  0.00  0.00    +0.150 HD
BRANCH  60  64
ATOM     64  CA  LEU A   1      -6.019  26.691   2.748  0.00  0.00    +0.145 C 
BRANCH  64  65
ATOM     65  N   LEU A   1      -4.994  26.694   3.758  0.00  0.00    -0.238 NA
ATOM     66  H   LEU A   1      -4.747  25.780   4.187  0.00  0.00    +0.142 HD
ENDBRANCH  64  65
BRANCH  64  67
ATOM     67  CB  LEU A   1      -5.777  25.417   1.930  0.00  0.00    +0.026 C 
BRANCH  67  68
ATOM     68  CG  LEU A   1      -6.645  24.910   0.760  0.00  0.00    +0.002 C 
ATOM     69  CD2 LEU A   1      -6.736  23.366   0.763  0.00  0.00    +0.000 C 
ATOM     70  CD1 LEU A   1      -6.084  25.517  -0.478  0.00  0.00    +0.000 C 
ENDBRANCH  67  68
ENDBRANCH  64  67
ENDBRANCH  60  64
ENDBRANCH  59  62
BRANCH  59  71
ATOM     71  CB  LEU A   2     -10.370  28.800   3.602  0.00  0.00    +0.029 C 
BRANCH  71  72
ATOM     72  CG  LEU A   2      -9.629  30.018   4.071  0.00  0.00    +0.002 C 
ATOM     73  CD2 LEU A   2      -9.705  30.185   5.553  0.00  0.00    +0.000 C 
ATOM     74  CD1 LEU A   2     -10.274  31.241   3.457  0.00  0.00    +0.000 C 
ENDBRANCH  71  72
ENDBRANCH  59  71
ENDBRANCH  55  59
ENDBRANCH  54  56
BRANCH  54  75
ATOM     75  CB  ASP A   3     -10.397  22.975   3.708  0.00  0.00    +0.143 C 
BRANCH  75  76
ATOM     76  CG  ASP A   3     -10.635  21.733   2.838  0.00  0.00    +0.367 C 
ATOM     77  OD2 ASP A   3      -9.812  20.822   2.895  0.00  0.00    -0.246 OA
ATOM     78  OD1 ASP A   3     -11.612  21.597   2.092  0.00  0.00    -0.246 OA
ENDBRANCH  75  76
ENDBRANCH  54  75
ENDBRANCH  50  54
ENDBRANCH  49  52
BRANCH  49  79
ATOM     79  CB  THR A   4     -16.063  24.574   2.785  0.00  0.00    +0.137 C 
ATOM     80  CG2 THR A   4     -16.094  26.051   3.087  0.00  0.00    +0.034 C 
BRANCH  79  81
ATOM     81  OG1 THR A   4     -15.599  24.439   1.446  0.00  0.00    -0.382 OA
ATOM     82  HG1 THR A   4     -14.686  24.815   1.375  0.00  0.00    +0.210 HD
ENDBRANCH  79  81
ENDBRANCH  49  79
ENDBRANCH  45  49
ENDBRANCH  44  47
ENDBRANCH   1  44
TORSDOF 35
REMARK  Name = ../refined-set-2016/1aaq/1aaq_pocket.pdb
REMARK  220 active torsions:
REMARK  status: ('A' for Active; 'I' for Inactive)
REMARK    1  A    between atoms: _1  and  _3
REMARK    2  A    between atoms: _3  and  _4
REMARK    3  A    between atoms: _3  and  _6
REMARK    4  A    between atoms: _6  and  _7
REMARK    5  A    between atoms: _7  and  _8
REMARK    6  A    between atoms: _8  and  _9
REMARK    7  A    between atoms: _18  and  _20
REMARK    8  A    between atoms: _20  and  _21
REMARK    9  A    between atoms: _20  and  _23
REMARK   10  A    between atoms: _23  and  _24
REMARK   11  A    between atoms: _27  and  _29
REMARK   12  A    between atoms: _29  and  _30
REMARK   13  A    between atoms: _29  and  _32
REMARK   14  A    between atoms: _32  and  _33
REMARK   15  A    between atoms: _36  and  _38
REMARK   16  A    between atoms: _38  and  _39
REMARK   17  A    between atoms: _38  and  _41
REMARK   18  A    between atoms: _41  and  _42
REMARK   19  A    between atoms: _45  and  _47
REMARK   20  A    between atoms: _47  and  _48
REMARK   21  A    between atoms: _47  and  _50
REMARK   22  A    between atoms: _50  and  _51
REMARK   23  A    between atoms: _54  and  _56
REMARK   24  A    between atoms: _56  and  _57
REMARK   25  A    between atoms: _59  and  _61
REMARK   26  A    between atoms: _61  and  _62
REMARK   27  A    between atoms: _65  and  _67
REMARK   28  A    between atoms: _67  and  _68
REMARK   29  A    between atoms: _67  and  _70
REMARK   30  A    between atoms: _70  and  _71
REMARK   31  A    between atoms: _74  and  _76
REMARK   32  A    between atoms: _76  and  _77
REMARK   33  A    between atoms: _76  and  _79
REMARK   34  A    between atoms: _79  and  _80
REMARK   35  A    between atoms: _83  and  _85
REMARK   36  A    between atoms: _85  and  _86
REMARK   37  A    between atoms: _85  and  _88
REMARK   38  A    between atoms: _88  and  _89
REMARK   39  A    between atoms: _92  and  _94
REMARK   40  A    between atoms: _94  and  _95
REMARK   41  A    between atoms: _94  and  _97
REMARK   42  A    between atoms: _100  and  _102
REMARK   43  A    between atoms: _102  and  _103
REMARK   44  A    between atoms: _102  and  _105
REMARK   45  A    between atoms: _106  and  _107
REMARK   46  A    between atoms: _107  and  _108
REMARK   47  A    between atoms: _108  and  _109
REMARK   48  A    between atoms: _113  and  _115
REMARK   49  A    between atoms: _115  and  _116
REMARK   50  A    between atoms: _115  and  _118
REMARK   51  A    between atoms: _118  and  _119
REMARK   52  A    between atoms: _119  and  _120
REMARK   53  A    between atoms: _122  and  _124
REMARK   54  A    between atoms: _124  and  _125
REMARK   55  A    between atoms: _124  and  _127
REMARK   56  A    between atoms: _127  and  _128
REMARK   57  A    between atoms: _131  and  _133
REMARK   58  A    between atoms: _133  and  _134
REMARK   59  A    between atoms: _136  and  _138
REMARK   60  A    between atoms: _138  and  _139
REMARK   61  A    between atoms: _141  and  _143
REMARK   62  A    between atoms: _143  and  _144
REMARK   63  A    between atoms: _143  and  _146
REMARK   64  A    between atoms: _146  and  _147
REMARK   65  A    between atoms: _150  and  _152
REMARK   66  A    between atoms: _152  and  _153
REMARK   67  A    between atoms: _155  and  _157
REMARK   68  A    between atoms: _157  and  _158
REMARK   69  A    between atoms: _160  and  _162
REMARK   70  A    between atoms: _162  and  _163
REMARK   71  A    between atoms: _162  and  _165
REMARK   72  A    between atoms: _165  and  _166
REMARK   73  A    between atoms: _172  and  _174
REMARK   74  A    between atoms: _174  and  _175
REMARK   75  A    between atoms: _174  and  _177
REMARK   76  A    between atoms: _177  and  _178
REMARK   77  A    between atoms: _181  and  _183
REMARK   78  A    between atoms: _183  and  _184
REMARK   79  A    between atoms: _183  and  _186
REMARK   80  A    between atoms: _186  and  _187
REMARK   81  A    between atoms: _190  and  _192
REMARK   82  A    between atoms: _192  and  _193
REMARK   83  A    between atoms: _192  and  _195
REMARK   84  A    between atoms: _195  and  _196
REMARK   85  A    between atoms: _200  and  _201
REMARK   86  A    between atoms: _206  and  _208
REMARK   87  A    between atoms: _208  and  _209
REMARK   88  A    between atoms: _208  and  _211
REMARK   89  A    between atoms: _214  and  _216
REMARK   90  A    between atoms: _216  and  _217
REMARK   91  A    between atoms: _216  and  _219
REMARK   92  A    between atoms: _219  and  _220
REMARK   93  A    between atoms: _223  and  _225
REMARK   94  A    between atoms: _225  and  _226
REMARK   95  A    between atoms: _225  and  _228
REMARK   96  A    between atoms: _228  and  _229
REMARK   97  A    between atoms: _232  and  _234
REMARK   98  A    between atoms: _234  and  _235
REMARK   99  A    between atoms: _237  and  _239
REMARK  100  A    between atoms: _239  and  _240
REMARK  101  A    between atoms: _239  and  _242
REMARK  102  A    between atoms: _242  and  _243
REMARK  103  A    between atoms: _243  and  _244
REMARK  104  A    between atoms: _244  and  _245
REMARK  105  A    between atoms: _254  and  _256
REMARK  106  A    between atoms: _256  and  _257
REMARK  107  A    between atoms: _256  and  _259
REMARK  108  A    between atoms: _259  and  _260
REMARK  109  A    between atoms: _265  and  _267
REMARK  110  A    between atoms: _267  and  _268
REMARK  111  A    between atoms: _267  and  _270
REMARK  112  A    between atoms: _270  and  _271
REMARK  113  A    between atoms: _271  and  _272
REMARK  114  A    between atoms: _272  and  _273
REMARK  115  A    between atoms: _282  and  _284
REMARK  116  A    between atoms: _284  and  _285
REMARK  117  A    between atoms: _284  and  _287
REMARK  118  A    between atoms: _287  and  _288
REMARK  119  A    between atoms: _291  and  _293
REMARK  120  A    between atoms: _293  and  _294
REMARK  121  A    between atoms: _293  and  _296
REMARK  122  A    between atoms: _296  and  _297
REMARK  123  A    between atoms: _300  and  _302
REMARK  124  A    between atoms: _302  and  _303
REMARK  125  A    between atoms: _302  and  _305
REMARK  126  A    between atoms: _305  and  _306
REMARK  127  A    between atoms: _309  and  _311
REMARK  128  A    between atoms: _311  and  _312
REMARK  129  A    between atoms: _311  and  _314
REMARK  130  A    between atoms: _314  and  _315
REMARK  131  A    between atoms: _318  and  _320
REMARK  132  A    between atoms: _320  and  _321
REMARK  133  A    between atoms: _323  and  _325
REMARK  134  A    between atoms: _325  and  _326
REMARK  135  A    between atoms: _329  and  _331
REMARK  136  A    between atoms: _331  and  _332
REMARK  137  A    between atoms: _331  and  _334
REMARK  138  A    between atoms: _334  and  _335
REMARK  139  A    between atoms: _338  and  _340
REMARK  140  A    between atoms: _340  and  _341
REMARK  141  A    between atoms: _340  and  _343
REMARK  142  A    between atoms: _343  and  _344
REMARK  143  A    between atoms: _347  and  _349
REMARK  144  A    between atoms: _349  and  _350
REMARK  145  A    between atoms: _349  and  _352
REMARK  146  A    between atoms: _352  and  _353
REMARK  147  A    between atoms: _356  and  _358
REMARK  148  A    between atoms: _358  and  _359
REMARK  149  A    between atoms: _358  and  _361
REMARK  150  A    between atoms: _364  and  _366
REMARK  151  A    between atoms: _366  and  _367
REMARK  152  A    between atoms: _366  and  _369
REMARK  153  A    between atoms: _369  and  _370
REMARK  154  A    between atoms: _370  and  _371
REMARK  155  A    between atoms: _371  and  _372
REMARK  156  A    between atoms: _372  and  _373
REMARK  157  A    between atoms: _377  and  _379
REMARK  158  A    between atoms: _379  and  _380
REMARK  159  A    between atoms: _379  and  _382
REMARK  160  A    between atoms: _382  and  _383
REMARK  161  A    between atoms: _383  and  _384
REMARK  162  A    between atoms: _386  and  _388
REMARK  163  A    between atoms: _388  and  _389
REMARK  164  A    between atoms: _388  and  _391
REMARK  165  A    between atoms: _391  and  _392
REMARK  166  A    between atoms: _395  and  _397
REMARK  167  A    between atoms: _397  and  _398
REMARK  168  A    between atoms: _400  and  _402
REMARK  169  A    between atoms: _402  and  _403
REMARK  170  A    between atoms: _405  and  _407
REMARK  171  A    between atoms: _407  and  _408
REMARK  172  A    between atoms: _407  and  _410
REMARK  173  A    between atoms: _410  and  _411
REMARK  174  A    between atoms: _414  and  _416
REMARK  175  A    between atoms: _416  and  _417
REMARK  176  A    between atoms: _419  and  _421
REMARK  177  A    between atoms: _421  and  _422
REMARK  178  A    between atoms: _424  and  _426
REMARK  179  A    between atoms: _426  and  _427
REMARK  180  A    between atoms: _426  and  _429
REMARK  181  A    between atoms: _429  and  _430
REMARK  182  A    between atoms: _436  and  _438
REMARK  183  A    between atoms: _438  and  _439
REMARK  184  A    between atoms: _438  and  _441
REMARK  185  A    between atoms: _441  and  _442
REMARK  186  A    between atoms: _445  and  _447
REMARK  187  A    between atoms: _447  and  _448
REMARK  188  A    between atoms: _447  and  _450
REMARK  189  A    between atoms: _453  and  _455
REMARK  190  A    between atoms: _455  and  _456
REMARK  191  A    between atoms: _455  and  _458
REMARK  192  A    between atoms: _458  and  _459
REMARK  193  A    between atoms: _462  and  _464
REMARK  194  A    between atoms: _464  and  _465
REMARK  195  A    between atoms: _464  and  _467
REMARK  196  A    between atoms: _467  and  _468
REMARK  197  A    between atoms: _472  and  _473
REMARK  198  A    between atoms: _478  and  _480
REMARK  199  A    between atoms: _480  and  _481
REMARK  200  A    between atoms: _480  and  _483
REMARK  201  A    between atoms: _486  and  _488
REMARK  202  A    between atoms: _488  and  _489
REMARK  203  A    between atoms: _488  and  _491
REMARK  204  A    between atoms: _491  and  _492
REMARK  205  A    between atoms: _497  and  _499
REMARK  206  A    between atoms: _499  and  _500
REMARK  207  A    between atoms: _499  and  _502
REMARK  208  A    between atoms: _502  and  _503
REMARK  209  A    between atoms: _506  and  _508
REMARK  210  A    between atoms: _508  and  _509
REMARK  211  A    between atoms: _508  and  _511
REMARK  212  A    between atoms: _511  and  _512
REMARK  213  A    between atoms: _515  and  _517
REMARK  214  A    between atoms: _517  and  _518
REMARK  215  A    between atoms: _520  and  _522
REMARK  216  A    between atoms: _522  and  _523
REMARK  217  A    between atoms: _522  and  _525
REMARK  218  A    between atoms: _525  and  _526
REMARK  219  A    between atoms: _526  and  _527
REMARK  220  A    between atoms: _527  and  _528
REMARK                            x       y       z     vdW  Elec       q    Type
REMARK                         _______ _______ _______ _____ _____    ______ ____
ROOT
ATOM      1  C   GLY A   5      -9.649  10.856   2.207  0.00  0.00    +0.243 C 
ATOM      2  O   GLY A   5     -10.206   9.768   2.207  0.00  0.00    -0.273 OA
ATOM      3  N   ILE A   6      -9.323  11.431   1.071  0.00  0.00    -0.297 N 
ATOM      4  H   ILE A   6      -8.963  12.405   1.123  0.00  0.00    +0.150 HD
ENDROOT
BRANCH   3   5
ATOM      5  CA  ILE A   6      -9.418  10.831  -0.258  0.00  0.00    +0.149 C 
BRANCH   5   6
ATOM      6  C   ILE A   6      -8.158   9.961  -0.226  0.00  0.00    +0.241 C 
ATOM      7  O   ILE A   6      -7.084  10.341   0.229  0.00  0.00    -0.273 OA
ATOM      8  N   GLY A   7      -8.283   8.713  -0.622  0.00  0.00    -0.295 N 
ATOM      9  H   GLY A   7      -9.218   8.311  -0.834  0.00  0.00    +0.150 HD
BRANCH   8  10
ATOM     10  CA  GLY A   7      -7.090   7.919  -0.754  0.00  0.00    +0.176 C 
BRANCH  10  11
ATOM     11  C   GLY A   7      -6.453   7.636   0.564  0.00  0.00    +0.243 C 
ATOM     12  N   GLY A   8      -7.094   7.639   1.728  0.00  0.00    -0.295 N 
ATOM     13  H   GLY A   8      -8.103   7.885   1.789  0.00  0.00    +0.150 HD
ATOM     14  O   GLY A   7      -5.264   7.386   0.520  0.00  0.00    -0.273 OA
BRANCH  12  15
ATOM     15  CA  GLY A   8      -6.332   7.285   2.911  0.00  0.00    +0.176 C 
BRANCH  15  16
ATOM     16  C   GLY A   8      -6.917   7.720   4.224  0.00  0.00    +0.243 C 
ATOM     17  N   PHE A   9      -6.214   7.250   5.260  0.00  0.00    -0.297 N 
ATOM     18  H   PHE A   9      -5.371   6.693   5.014  0.00  0.00    +0.150 HD
ATOM     19  O   GLY A   8      -7.922   8.414   4.248  0.00  0.00    -0.273 OA
BRANCH  17  20
ATOM     20  CA  PHE A   9      -6.464   7.410   6.679  0.00  0.00    +0.153 C 
BRANCH  20  21
ATOM     21  C   PHE A   9      -5.086   7.705   7.234  0.00  0.00    +0.241 C 
ATOM     22  N   ILE A  10      -4.848   8.685   8.109  0.00  0.00    -0.298 N 
ATOM     23  H   ILE A  10      -5.634   9.292   8.420  0.00  0.00    +0.150 HD
ATOM     24  O   PHE A   9      -4.150   7.026   6.809  0.00  0.00    -0.273 OA
BRANCH  22  25
ATOM     25  CA  ILE A  10      -3.516   8.922   8.636  0.00  0.00    +0.137 C 
BRANCH  25  26
ATOM     26  C   ILE A  10      -3.633   8.987  10.141  0.00  0.00    +0.227 C 
ATOM     27  O   ILE A  10      -4.720   9.244  10.688  0.00  0.00    -0.286 OA
ENDBRANCH  25  26
BRANCH  25  28
ATOM     28  CB  ILE A  10      -2.831  10.278   8.172  0.00  0.00    +0.026 C 
ATOM     29  CG2 ILE A  10      -2.356  10.181   6.741  0.00  0.00    +0.002 C 
BRANCH  28  30
ATOM     30  CG1 ILE A  10      -3.781  11.443   8.370  0.00  0.00    +0.002 C 
ATOM     31  CD1 ILE A  10      -3.120  12.775   8.027  0.00  0.00    +0.000 C 
ENDBRANCH  28  30
ENDBRANCH  25  28
ENDBRANCH  22  25
ENDBRANCH  20  21
BRANCH  20  32
ATOM     32  CB  PHE A   9      -6.999   6.131   7.296  0.00  0.00    +0.055 C 
BRANCH  32  33
ATOM     33  CG  PHE A   9      -8.525   6.065   7.254  0.00  0.00    -0.020 A 
ATOM     34  CD2 PHE A   9      -9.288   6.691   8.238  0.00  0.00    -0.004 A 
ATOM     35  CE2 PHE A   9     -10.676   6.631   8.191  0.00  0.00    -0.000 A 
ATOM     36  CZ  PHE A   9     -11.316   5.956   7.167  0.00  0.00    -0.000 A 
ATOM     37  CE1 PHE A   9     -10.562   5.334   6.189  0.00  0.00    -0.000 A 
ATOM     38  CD1 PHE A   9      -9.172   5.387   6.225  0.00  0.00    -0.004 A 
ENDBRANCH  32  33
ENDBRANCH  20  32
ENDBRANCH  17  20
ENDBRANCH  15  16
ENDBRANCH  12  15
ENDBRANCH  10  11
ENDBRANCH   8  10
ENDBRANCH   5   6
BRANCH   5  39
ATOM     39  CB  ILE A   6      -9.340  11.954  -1.429  0.00  0.00    +0.027 C 
ATOM     40  CG2 ILE A   6      -8.257  11.670  -2.445  0.00  0.00    +0.002 C 
BRANCH  39  41
ATOM     41  CG1 ILE A   6     -10.533  11.931  -2.365  0.00  0.00    +0.002 C 
ATOM     42  CD1 ILE A   6     -11.897  12.462  -1.833  0.00  0.00    +0.000 C 
ENDBRANCH  39  41
ENDBRANCH   5  39
ENDBRANCH   3   5
BRANCH   1  43
ATOM     43  CA  GLY A   5      -9.355  11.651   3.491  0.00  0.00    +0.176 C 
BRANCH  43  46
ATOM     44  C   GLY A   4      -9.735  11.210   5.911  0.00  0.00    +0.243 C 
ATOM     45  O   GLY A   4     -10.071  12.373   6.158  0.00  0.00    -0.273 OA
ATOM     46  N   GLY A   5      -9.377  10.814   4.691  0.00  0.00    -0.295 N 
ATOM     47  H   GLY A   5      -9.087   9.821   4.581  0.00  0.00    +0.150 HD
BRANCH  44  48
ATOM     48  CA  GLY A   4      -9.765  10.080   6.961  0.00  0.00    +0.176 C 
BRANCH  48  51
ATOM     49  C   ILE A   3      -8.356  10.417   8.915  0.00  0.00    +0.241 C 
ATOM     50  O   ILE A   3      -7.342   9.923   8.431  0.00  0.00    -0.273 OA
ATOM     51  N   GLY A   4      -9.542  10.481   8.347  0.00  0.00    -0.295 N 
ATOM     52  H   GLY A   4     -10.348  10.829   8.905  0.00  0.00    +0.150 HD
BRANCH  49  53
ATOM     53  CA  ILE A   3      -8.275  11.092  10.229  0.00  0.00    +0.149 C 
BRANCH  53  56
ATOM     54  C   MET A   2      -7.744   9.757  12.172  0.00  0.00    +0.241 C 
ATOM     55  O   MET A   2      -8.897   9.908  12.587  0.00  0.00    -0.273 OA
ATOM     56  N   ILE A   3      -7.368  10.254  11.007  0.00  0.00    -0.297 N 
ATOM     57  H   ILE A   3      -6.417  10.046  10.641  0.00  0.00    +0.150 HD
BRANCH  54  58
ATOM     58  CA  MET A   2      -6.747   8.990  13.006  0.00  0.00    +0.149 C 
BRANCH  58  61
ATOM     59  C   LYS A   1      -5.866   9.597  15.195  0.00  0.00    +0.238 C 
ATOM     60  O   LYS A   1      -4.713   9.582  14.750  0.00  0.00    -0.274 OA
ATOM     61  N   MET A   2      -6.888   9.468  14.368  0.00  0.00    -0.297 N 
ATOM     62  H   MET A   2      -7.837   9.721  14.709  0.00  0.00    +0.150 HD
BRANCH  59  63
ATOM     63  CA  LYS A   1      -6.131   9.879  16.669  0.00  0.00    +0.145 C 
BRANCH  63  64
ATOM     64  N   LYS A   1      -4.806   9.878  17.317  0.00  0.00    -0.238 NA
ATOM     65  H   LYS A   1      -3.977   9.886  16.689  0.00  0.00    +0.142 HD
ENDBRANCH  63  64
BRANCH  63  66
ATOM     66  CB  LYS A   1      -6.805  11.253  16.832  0.00  0.00    +0.026 C 
BRANCH  66  67
ATOM     67  CG  LYS A   1      -8.262  11.431  16.459  0.00  0.00    -0.000 C 
BRANCH  67  68
ATOM     68  CD  LYS A   1      -8.798  12.874  16.639  0.00  0.00    -0.024 C 
BRANCH  68  69
ATOM     69  CE  LYS A   1     -10.278  13.007  16.160  0.00  0.00    -0.086 C 
BRANCH  69  70
ATOM     70  NZ  LYS A   1     -10.999  14.193  16.622  0.00  0.00    +0.380 N 
ATOM     71  HZ1 LYS A   1     -11.031  14.195  17.662  0.00  0.00    -0.089 HD
ATOM     72  HZ2 LYS A   1     -10.509  15.047  16.287  0.00  0.00    -0.089 HD
ATOM     73  HZ3 LYS A   1     -11.968  14.177  16.245  0.00  0.00    -0.089 HD
ENDBRANCH  69  70
ENDBRANCH  68  69
ENDBRANCH  67  68
ENDBRANCH  66  67
ENDBRANCH  63  66
ENDBRANCH  59  63
ENDBRANCH  58  61
BRANCH  58  74
ATOM     74  CB  MET A   2      -7.056   7.510  13.020  0.00  0.00    +0.041 C 
BRANCH  74  75
ATOM     75  CG  MET A   2      -6.290   6.798  11.960  0.00  0.00    +0.060 C 
BRANCH  75  76
ATOM     76  SD  MET A   2      -5.923   5.132  12.543  0.00  0.00    -0.139 S 
ATOM     77  CE  MET A   2      -5.781   4.446  10.885  0.00  0.00    +0.069 C 
ENDBRANCH  75  76
ENDBRANCH  74  75
ENDBRANCH  58  74
ENDBRANCH  54  58
ENDBRANCH  53  56
BRANCH  53  78
ATOM     78  CB  ILE A   3      -7.661  12.585  10.126  0.00  0.00    +0.027 C 
ATOM     79  CG2 ILE A   3      -6.859  12.953   8.900  0.00  0.00    +0.002 C 
BRANCH  78  80
ATOM     80  CG1 ILE A   3      -8.799  13.495  10.056  0.00  0.00    +0.002 C 
ATOM     81  CD1 ILE A   3      -9.173  13.681  11.533  0.00  0.00    +0.000 C 
ENDBRANCH  78  80
ENDBRANCH  53  78
ENDBRANCH  49  53
ENDBRANCH  48  51
ENDBRANCH  44  48
ENDBRANCH  43  46
ENDBRANCH   1  43
TORSDOF 36
REMARK  Name = ../refined-set-2016/1aaq/1aaq_pocket.pdb
REMARK  220 active torsions:
REMARK  status: ('A' for Active; 'I' for Inactive)
REMARK    1  A    between atoms: _1  and  _3
REMARK    2  A    between atoms: _3  and  _4
REMARK    3  A    between atoms: _3  and  _6
REMARK    4  A    between atoms: _6  and  _7
REMARK    5  A    between atoms: _7  and  _8
REMARK    6  A    between atoms: _8  and  _9
REMARK    7  A    between atoms: _18  and  _20
REMARK    8  A    between atoms: _20  and  _21
REMARK    9  A    between atoms: _20  and  _23
REMARK   10  A    between atoms: _23  and  _24
REMARK   11  A    between atoms: _27  and  _29
REMARK   12  A    between atoms: _29  and  _30
REMARK   13  A    between atoms: _29  and  _32
REMARK   14  A    between atoms: _32  and  _33
REMARK   15  A    between atoms: _36  and  _38
REMARK   16  A    between atoms: _38  and  _39
REMARK   17  A    between atoms: _38  and  _41
REMARK   18  A    between atoms: _41  and  _42
REMARK   19  A    between atoms: _45  and  _47
REMARK   20  A    between atoms: _47  and  _48
REMARK   21  A    between atoms: _47  and  _50
REMARK   22  A    between atoms: _50  and  _51
REMARK   23  A    between atoms: _54  and  _56
REMARK   24  A    between atoms: _56  and  _57
REMARK   25  A    between atoms: _59  and  _61
REMARK   26  A    between atoms: _61  and  _62
REMARK   27  A    between atoms: _65  and  _67
REMARK   28  A    between atoms: _67  and  _68
REMARK   29  A    between atoms: _67  and  _70
REMARK   30  A    between atoms: _70  and  _71
REMARK   31  A    between atoms: _74  and  _76
REMARK   32  A    between atoms: _76  and  _77
REMARK   33  A    between atoms: _76  and  _79
REMARK   34  A    between atoms: _79  and  _80
REMARK   35  A    between atoms: _83  and  _85
REMARK   36  A    between atoms: _85  and  _86
REMARK   37  A    between atoms: _85  and  _88
REMARK   38  A    between atoms: _88  and  _89
REMARK   39  A    between atoms: _92  and  _94
REMARK   40  A    between atoms: _94  and  _95
REMARK   41  A    between atoms: _94  and  _97
REMARK   42  A    between atoms: _100  and  _102
REMARK   43  A    between atoms: _102  and  _103
REMARK   44  A    between atoms: _102  and  _105
REMARK   45  A    between atoms: _106  and  _107
REMARK   46  A    between atoms: _107  and  _108
REMARK   47  A    between atoms: _108  and  _109
REMARK   48  A    between atoms: _113  and  _115
REMARK   49  A    between atoms: _115  and  _116
REMARK   50  A    between atoms: _115  and  _118
REMARK   51  A    between atoms: _118  and  _119
REMARK   52  A    between atoms: _119  and  _120
REMARK   53  A    between atoms: _122  and  _124
REMARK   54  A    between atoms: _124  and  _125
REMARK   55  A    between atoms: _124  and  _127
REMARK   56  A    between atoms: _127  and  _128
REMARK   57  A    between atoms: _131  and  _133
REMARK   58  A    between atoms: _133  and  _134
REMARK   59  A    between atoms: _136  and  _138
REMARK   60  A    between atoms: _138  and  _139
REMARK   61  A    between atoms: _141  and  _143
REMARK   62  A    between atoms: _143  and  _144
REMARK   63  A    between atoms: _143  and  _146
REMARK   64  A    between atoms: _146  and  _147
REMARK   65  A    between atoms: _150  and  _152
REMARK   66  A    between atoms: _152  and  _153
REMARK   67  A    between atoms: _155  and  _157
REMARK   68  A    between atoms: _157  and  _158
REMARK   69  A    between atoms: _160  and  _162
REMARK   70  A    between atoms: _162  and  _163
REMARK   71  A    between atoms: _162  and  _165
REMARK   72  A    between atoms: _165  and  _166
REMARK   73  A    between atoms: _172  and  _174
REMARK   74  A    between atoms: _174  and  _175
REMARK   75  A    between atoms: _174  and  _177
REMARK   76  A    between atoms: _177  and  _178
REMARK   77  A    between atoms: _181  and  _183
REMARK   78  A    between atoms: _183  and  _184
REMARK   79  A    between atoms: _183  and  _186
REMARK   80  A    between atoms: _186  and  _187
REMARK   81  A    between atoms: _190  and  _192
REMARK   82  A    between atoms: _192  and  _193
REMARK   83  A    between atoms: _192  and  _195
REMARK   84  A    between atoms: _195  and  _196
REMARK   85  A    between atoms: _200  and  _201
REMARK   86  A    between atoms: _206  and  _208
REMARK   87  A    between atoms: _208  and  _209
REMARK   88  A    between atoms: _208  and  _211
REMARK   89  A    between atoms: _214  and  _216
REMARK   90  A    between atoms: _216  and  _217
REMARK   91  A    between atoms: _216  and  _219
REMARK   92  A    between atoms: _219  and  _220
REMARK   93  A    between atoms: _223  and  _225
REMARK   94  A    between atoms: _225  and  _226
REMARK   95  A    between atoms: _225  and  _228
REMARK   96  A    between atoms: _228  and  _229
REMARK   97  A    between atoms: _232  and  _234
REMARK   98  A    between atoms: _234  and  _235
REMARK   99  A    between atoms: _237  and  _239
REMARK  100  A    between atoms: _239  and  _240
REMARK  101  A    between atoms: _239  and  _242
REMARK  102  A    between atoms: _242  and  _243
REMARK  103  A    between atoms: _243  and  _244
REMARK  104  A    between atoms: _244  and  _245
REMARK  105  A    between atoms: _254  and  _256
REMARK  106  A    between atoms: _256  and  _257
REMARK  107  A    between atoms: _256  and  _259
REMARK  108  A    between atoms: _259  and  _260
REMARK  109  A    between atoms: _265  and  _267
REMARK  110  A    between atoms: _267  and  _268
REMARK  111  A    between atoms: _267  and  _270
REMARK  112  A    between atoms: _270  and  _271
REMARK  113  A    between atoms: _271  and  _272
REMARK  114  A    between atoms: _272  and  _273
REMARK  115  A    between atoms: _282  and  _284
REMARK  116  A    between atoms: _284  and  _285
REMARK  117  A    between atoms: _284  and  _287
REMARK  118  A    between atoms: _287  and  _288
REMARK  119  A    between atoms: _291  and  _293
REMARK  120  A    between atoms: _293  and  _294
REMARK  121  A    between atoms: _293  and  _296
REMARK  122  A    between atoms: _296  and  _297
REMARK  123  A    between atoms: _300  and  _302
REMARK  124  A    between atoms: _302  and  _303
REMARK  125  A    between atoms: _302  and  _305
REMARK  126  A    between atoms: _305  and  _306
REMARK  127  A    between atoms: _309  and  _311
REMARK  128  A    between atoms: _311  and  _312
REMARK  129  A    between atoms: _311  and  _314
REMARK  130  A    between atoms: _314  and  _315
REMARK  131  A    between atoms: _318  and  _320
REMARK  132  A    between atoms: _320  and  _321
REMARK  133  A    between atoms: _323  and  _325
REMARK  134  A    between atoms: _325  and  _326
REMARK  135  A    between atoms: _329  and  _331
REMARK  136  A    between atoms: _331  and  _332
REMARK  137  A    between atoms: _331  and  _334
REMARK  138  A    between atoms: _334  and  _335
REMARK  139  A    between atoms: _338  and  _340
REMARK  140  A    between atoms: _340  and  _341
REMARK  141  A    between atoms: _340  and  _343
REMARK  142  A    between atoms: _343  and  _344
REMARK  143  A    between atoms: _347  and  _349
REMARK  144  A    between atoms: _349  and  _350
REMARK  145  A    between atoms: _349  and  _352
REMARK  146  A    between atoms: _352  and  _353
REMARK  147  A    between atoms: _356  and  _358
REMARK  148  A    between atoms: _358  and  _359
REMARK  149  A    between atoms: _358  and  _361
REMARK  150  A    between atoms: _364  and  _366
REMARK  151  A    between atoms: _366  and  _367
REMARK  152  A    between atoms: _366  and  _369
REMARK  153  A    between atoms: _369  and  _370
REMARK  154  A    between atoms: _370  and  _371
REMARK  155  A    between atoms: _371  and  _372
REMARK  156  A    between atoms: _372  and  _373
REMARK  157  A    between atoms: _377  and  _379
REMARK  158  A    between atoms: _379  and  _380
REMARK  159  A    between atoms: _379  and  _382
REMARK  160  A    between atoms: _382  and  _383
REMARK  161  A    between atoms: _383  and  _384
REMARK  162  A    between atoms: _386  and  _388
REMARK  163  A    between atoms: _388  and  _389
REMARK  164  A    between atoms: _388  and  _391
REMARK  165  A    between atoms: _391  and  _392
REMARK  166  A    between atoms: _395  and  _397
REMARK  167  A    between atoms: _397  and  _398
REMARK  168  A    between atoms: _400  and  _402
REMARK  169  A    between atoms: _402  and  _403
REMARK  170  A    between atoms: _405  and  _407
REMARK  171  A    between atoms: _407  and  _408
REMARK  172  A    between atoms: _407  and  _410
REMARK  173  A    between atoms: _410  and  _411
REMARK  174  A    between atoms: _414  and  _416
REMARK  175  A    between atoms: _416  and  _417
REMARK  176  A    between atoms: _419  and  _421
REMARK  177  A    between atoms: _421  and  _422
REMARK  178  A    between atoms: _424  and  _426
REMARK  179  A    between atoms: _426  and  _427
REMARK  180  A    between atoms: _426  and  _429
REMARK  181  A    between atoms: _429  and  _430
REMARK  182  A    between atoms: _436  and  _438
REMARK  183  A    between atoms: _438  and  _439
REMARK  184  A    between atoms: _438  and  _441
REMARK  185  A    between atoms: _441  and  _442
REMARK  186  A    between atoms: _445  and  _447
REMARK  187  A    between atoms: _447  and  _448
REMARK  188  A    between atoms: _447  and  _450
REMARK  189  A    between atoms: _453  and  _455
REMARK  190  A    between atoms: _455  and  _456
REMARK  191  A    between atoms: _455  and  _458
REMARK  192  A    between atoms: _458  and  _459
REMARK  193  A    between atoms: _462  and  _464
REMARK  194  A    between atoms: _464  and  _465
REMARK  195  A    between atoms: _464  and  _467
REMARK  196  A    between atoms: _467  and  _468
REMARK  197  A    between atoms: _472  and  _473
REMARK  198  A    between atoms: _478  and  _480
REMARK  199  A    between atoms: _480  and  _481
REMARK  200  A    between atoms: _480  and  _483
REMARK  201  A    between atoms: _486  and  _488
REMARK  202  A    between atoms: _488  and  _489
REMARK  203  A    between atoms: _488  and  _491
REMARK  204  A    between atoms: _491  and  _492
REMARK  205  A    between atoms: _497  and  _499
REMARK  206  A    between atoms: _499  and  _500
REMARK  207  A    between atoms: _499  and  _502
REMARK  208  A    between atoms: _502  and  _503
REMARK  209  A    between atoms: _506  and  _508
REMARK  210  A    between atoms: _508  and  _509
REMARK  211  A    between atoms: _508  and  _511
REMARK  212  A    between atoms: _511  and  _512
REMARK  213  A    between atoms: _515  and  _517
REMARK  214  A    between atoms: _517  and  _518
REMARK  215  A    between atoms: _520  and  _522
REMARK  216  A    between atoms: _522  and  _523
REMARK  217  A    between atoms: _522  and  _525
REMARK  218  A    between atoms: _525  and  _526
REMARK  219  A    between atoms: _526  and  _527
REMARK  220  A    between atoms: _527  and  _528
REMARK                            x       y       z     vdW  Elec       q    Type
REMARK                         _______ _______ _______ _____ _____    ______ ____
ROOT
ATOM      1  CA  VAL A   1      -2.255  12.470  13.595  0.00  0.00    +0.133 C 
ENDROOT
BRANCH   1   2
ATOM      2  CB  VAL A   1      -3.403  13.466  13.044  0.00  0.00    +0.023 C 
ATOM      3  CG2 VAL A   1      -4.770  13.047  13.472  0.00  0.00    +0.002 C 
ATOM      4  CG1 VAL A   1      -3.436  13.480  11.520  0.00  0.00    +0.002 C 
ENDBRANCH   1   2
BRANCH   1   5
ATOM      5  N   VAL A   1      -2.588  11.071  13.310  0.00  0.00    -0.239 NA
ATOM      6  H   VAL A   1      -3.421  10.669  13.785  0.00  0.00    +0.142 HD
ENDBRANCH   1   5
BRANCH   1   7
ATOM      7  C   VAL A   1      -2.074  12.650  15.119  0.00  0.00    +0.224 C 
ATOM      8  O   VAL A   1      -2.326  11.702  15.854  0.00  0.00    -0.287 OA
ENDBRANCH   1   7
TORSDOF 3
REMARK  Name = ../refined-set-2016/1aaq/1aaq_pocket.pdb
REMARK  220 active torsions:
REMARK  status: ('A' for Active; 'I' for Inactive)
REMARK    1  A    between atoms: _1  and  _3
REMARK    2  A    between atoms: _3  and  _4
REMARK    3  A    between atoms: _3  and  _6
REMARK    4  A    between atoms: _6  and  _7
REMARK    5  A    between atoms: _7  and  _8
REMARK    6  A    between atoms: _8  and  _9
REMARK    7  A    between atoms: _18  and  _20
REMARK    8  A    between atoms: _20  and  _21
REMARK    9  A    between atoms: _20  and  _23
REMARK   10  A    between atoms: _23  and  _24
REMARK   11  A    between atoms: _27  and  _29
REMARK   12  A    between atoms: _29  and  _30
REMARK   13  A    between atoms: _29  and  _32
REMARK   14  A    between atoms: _32  and  _33
REMARK   15  A    between atoms: _36  and  _38
REMARK   16  A    between atoms: _38  and  _39
REMARK   17  A    between atoms: _38  and  _41
REMARK   18  A    between atoms: _41  and  _42
REMARK   19  A    between atoms: _45  and  _47
REMARK   20  A    between atoms: _47  and  _48
REMARK   21  A    between atoms: _47  and  _50
REMARK   22  A    between atoms: _50  and  _51
REMARK   23  A    between atoms: _54  and  _56
REMARK   24  A    between atoms: _56  and  _57
REMARK   25  A    between atoms: _59  and  _61
REMARK   26  A    between atoms: _61  and  _62
REMARK   27  A    between atoms: _65  and  _67
REMARK   28  A    between atoms: _67  and  _68
REMARK   29  A    between atoms: _67  and  _70
REMARK   30  A    between atoms: _70  and  _71
REMARK   31  A    between atoms: _74  and  _76
REMARK   32  A    between atoms: _76  and  _77
REMARK   33  A    between atoms: _76  and  _79
REMARK   34  A    between atoms: _79  and  _80
REMARK   35  A    between atoms: _83  and  _85
REMARK   36  A    between atoms: _85  and  _86
REMARK   37  A    between atoms: _85  and  _88
REMARK   38  A    between atoms: _88  and  _89
REMARK   39  A    between atoms: _92  and  _94
REMARK   40  A    between atoms: _94  and  _95
REMARK   41  A    between atoms: _94  and  _97
REMARK   42  A    between atoms: _100  and  _102
REMARK   43  A    between atoms: _102  and  _103
REMARK   44  A    between atoms: _102  and  _105
REMARK   45  A    between atoms: _106  and  _107
REMARK   46  A    between atoms: _107  and  _108
REMARK   47  A    between atoms: _108  and  _109
REMARK   48  A    between atoms: _113  and  _115
REMARK   49  A    between atoms: _115  and  _116
REMARK   50  A    between atoms: _115  and  _118
REMARK   51  A    between atoms: _118  and  _119
REMARK   52  A    between atoms: _119  and  _120
REMARK   53  A    between atoms: _122  and  _124
REMARK   54  A    between atoms: _124  and  _125
REMARK   55  A    between atoms: _124  and  _127
REMARK   56  A    between atoms: _127  and  _128
REMARK   57  A    between atoms: _131  and  _133
REMARK   58  A    between atoms: _133  and  _134
REMARK   59  A    between atoms: _136  and  _138
REMARK   60  A    between atoms: _138  and  _139
REMARK   61  A    between atoms: _141  and  _143
REMARK   62  A    between atoms: _143  and  _144
REMARK   63  A    between atoms: _143  and  _146
REMARK   64  A    between atoms: _146  and  _147
REMARK   65  A    between atoms: _150  and  _152
REMARK   66  A    between atoms: _152  and  _153
REMARK   67  A    between atoms: _155  and  _157
REMARK   68  A    between atoms: _157  and  _158
REMARK   69  A    between atoms: _160  and  _162
REMARK   70  A    between atoms: _162  and  _163
REMARK   71  A    between atoms: _162  and  _165
REMARK   72  A    between atoms: _165  and  _166
REMARK   73  A    between atoms: _172  and  _174
REMARK   74  A    between atoms: _174  and  _175
REMARK   75  A    between atoms: _174  and  _177
REMARK   76  A    between atoms: _177  and  _178
REMARK   77  A    between atoms: _181  and  _183
REMARK   78  A    between atoms: _183  and  _184
REMARK   79  A    between atoms: _183  and  _186
REMARK   80  A    between atoms: _186  and  _187
REMARK   81  A    between atoms: _190  and  _192
REMARK   82  A    between atoms: _192  and  _193
REMARK   83  A    between atoms: _192  and  _195
REMARK   84  A    between atoms: _195  and  _196
REMARK   85  A    between atoms: _200  and  _201
REMARK   86  A    between atoms: _206  and  _208
REMARK   87  A    between atoms: _208  and  _209
REMARK   88  A    between atoms: _208  and  _211
REMARK   89  A    between atoms: _214  and  _216
REMARK   90  A    between atoms: _216  and  _217
REMARK   91  A    between atoms: _216  and  _219
REMARK   92  A    between atoms: _219  and  _220
REMARK   93  A    between atoms: _223  and  _225
REMARK   94  A    between atoms: _225  and  _226
REMARK   95  A    between atoms: _225  and  _228
REMARK   96  A    between atoms: _228  and  _229
REMARK   97  A    between atoms: _232  and  _234
REMARK   98  A    between atoms: _234  and  _235
REMARK   99  A    between atoms: _237  and  _239
REMARK  100  A    between atoms: _239  and  _240
REMARK  101  A    between atoms: _239  and  _242
REMARK  102  A    between atoms: _242  and  _243
REMARK  103  A    between atoms: _243  and  _244
REMARK  104  A    between atoms: _244  and  _245
REMARK  105  A    between atoms: _254  and  _256
REMARK  106  A    between atoms: _256  and  _257
REMARK  107  A    between atoms: _256  and  _259
REMARK  108  A    between atoms: _259  and  _260
REMARK  109  A    between atoms: _265  and  _267
REMARK  110  A    between atoms: _267  and  _268
REMARK  111  A    between atoms: _267  and  _270
REMARK  112  A    between atoms: _270  and  _271
REMARK  113  A    between atoms: _271  and  _272
REMARK  114  A    between atoms: _272  and  _273
REMARK  115  A    between atoms: _282  and  _284
REMARK  116  A    between atoms: _284  and  _285
REMARK  117  A    between atoms: _284  and  _287
REMARK  118  A    between atoms: _287  and  _288
REMARK  119  A    between atoms: _291  and  _293
REMARK  120  A    between atoms: _293  and  _294
REMARK  121  A    between atoms: _293  and  _296
REMARK  122  A    between atoms: _296  and  _297
REMARK  123  A    between atoms: _300  and  _302
REMARK  124  A    between atoms: _302  and  _303
REMARK  125  A    between atoms: _302  and  _305
REMARK  126  A    between atoms: _305  and  _306
REMARK  127  A    between atoms: _309  and  _311
REMARK  128  A    between atoms: _311  and  _312
REMARK  129  A    between atoms: _311  and  _314
REMARK  130  A    between atoms: _314  and  _315
REMARK  131  A    between atoms: _318  and  _320
REMARK  132  A    between atoms: _320  and  _321
REMARK  133  A    between atoms: _323  and  _325
REMARK  134  A    between atoms: _325  and  _326
REMARK  135  A    between atoms: _329  and  _331
REMARK  136  A    between atoms: _331  and  _332
REMARK  137  A    between atoms: _331  and  _334
REMARK  138  A    between atoms: _334  and  _335
REMARK  139  A    between atoms: _338  and  _340
REMARK  140  A    between atoms: _340  and  _341
REMARK  141  A    between atoms: _340  and  _343
REMARK  142  A    between atoms: _343  and  _344
REMARK  143  A    between atoms: _347  and  _349
REMARK  144  A    between atoms: _349  and  _350
REMARK  145  A    between atoms: _349  and  _352
REMARK  146  A    between atoms: _352  and  _353
REMARK  147  A    between atoms: _356  and  _358
REMARK  148  A    between atoms: _358  and  _359
REMARK  149  A    between atoms: _358  and  _361
REMARK  150  A    between atoms: _364  and  _366
REMARK  151  A    between atoms: _366  and  _367
REMARK  152  A    between atoms: _366  and  _369
REMARK  153  A    between atoms: _369  and  _370
REMARK  154  A    between atoms: _370  and  _371
REMARK  155  A    between atoms: _371  and  _372
REMARK  156  A    between atoms: _372  and  _373
REMARK  157  A    between atoms: _377  and  _379
REMARK  158  A    between atoms: _379  and  _380
REMARK  159  A    between atoms: _379  and  _382
REMARK  160  A    between atoms: _382  and  _383
REMARK  161  A    between atoms: _383  and  _384
REMARK  162  A    between atoms: _386  and  _388
REMARK  163  A    between atoms: _388  and  _389
REMARK  164  A    between atoms: _388  and  _391
REMARK  165  A    between atoms: _391  and  _392
REMARK  166  A    between atoms: _395  and  _397
REMARK  167  A    between atoms: _397  and  _398
REMARK  168  A    between atoms: _400  and  _402
REMARK  169  A    between atoms: _402  and  _403
REMARK  170  A    between atoms: _405  and  _407
REMARK  171  A    between atoms: _407  and  _408
REMARK  172  A    between atoms: _407  and  _410
REMARK  173  A    between atoms: _410  and  _411
REMARK  174  A    between atoms: _414  and  _416
REMARK  175  A    between atoms: _416  and  _417
REMARK  176  A    between atoms: _419  and  _421
REMARK  177  A    between atoms: _421  and  _422
REMARK  178  A    between atoms: _424  and  _426
REMARK  179  A    between atoms: _426  and  _427
REMARK  180  A    between atoms: _426  and  _429
REMARK  181  A    between atoms: _429  and  _430
REMARK  182  A    between atoms: _436  and  _438
REMARK  183  A    between atoms: _438  and  _439
REMARK  184  A    between atoms: _438  and  _441
REMARK  185  A    between atoms: _441  and  _442
REMARK  186  A    between atoms: _445  and  _447
REMARK  187  A    between atoms: _447  and  _448
REMARK  188  A    between atoms: _447  and  _450
REMARK  189  A    between atoms: _453  and  _455
REMARK  190  A    between atoms: _455  and  _456
REMARK  191  A    between atoms: _455  and  _458
REMARK  192  A    between atoms: _458  and  _459
REMARK  193  A    between atoms: _462  and  _464
REMARK  194  A    between atoms: _464  and  _465
REMARK  195  A    between atoms: _464  and  _467
REMARK  196  A    between atoms: _467  and  _468
REMARK  197  A    between atoms: _472  and  _473
REMARK  198  A    between atoms: _478  and  _480
REMARK  199  A    between atoms: _480  and  _481
REMARK  200  A    between atoms: _480  and  _483
REMARK  201  A    between atoms: _486  and  _488
REMARK  202  A    between atoms: _488  and  _489
REMARK  203  A    between atoms: _488  and  _491
REMARK  204  A    between atoms: _491  and  _492
REMARK  205  A    between atoms: _497  and  _499
REMARK  206  A    between atoms: _499  and  _500
REMARK  207  A    between atoms: _499  and  _502
REMARK  208  A    between atoms: _502  and  _503
REMARK  209  A    between atoms: _506  and  _508
REMARK  210  A    between atoms: _508  and  _509
REMARK  211  A    between atoms: _508  and  _511
REMARK  212  A    between atoms: _511  and  _512
REMARK  213  A    between atoms: _515  and  _517
REMARK  214  A    between atoms: _517  and  _518
REMARK  215  A    between atoms: _520  and  _522
REMARK  216  A    between atoms: _522  and  _523
REMARK  217  A    between atoms: _522  and  _525
REMARK  218  A    between atoms: _525  and  _526
REMARK  219  A    between atoms: _526  and  _527
REMARK  220  A    between atoms: _527  and  _528
REMARK                            x       y       z     vdW  Elec       q    Type
REMARK                         _______ _______ _______ _____ _____    ______ ____
ROOT
ATOM      1  CA  LEU A   1      -4.282  17.964  14.574  0.00  0.00    +0.133 C 
ENDROOT
BRANCH   1   2
ATOM      2  N   LEU A   1      -4.774  19.293  14.818  0.00  0.00    -0.239 NA
ATOM      3  H   LEU A   1      -5.128  19.821  13.995  0.00  0.00    +0.142 HD
ENDBRANCH   1   2
BRANCH   1   4
ATOM      4  C   LEU A   1      -3.090  18.200  13.701  0.00  0.00    +0.224 C 
ATOM      5  O   LEU A   1      -3.169  18.834  12.664  0.00  0.00    -0.287 OA
ENDBRANCH   1   4
BRANCH   1   6
ATOM      6  CB  LEU A   1      -5.285  17.170  13.826  0.00  0.00    +0.025 C 
BRANCH   6   7
ATOM      7  CG  LEU A   1      -6.390  16.516  14.591  0.00  0.00    +0.002 C 
ATOM      8  CD2 LEU A   1      -7.285  17.537  15.196  0.00  0.00    +0.000 C 
ATOM      9  CD1 LEU A   1      -7.259  15.736  13.650  0.00  0.00    +0.000 C 
ENDBRANCH   6   7
ENDBRANCH   1   6
TORSDOF 4
REMARK  Name = ../refined-set-2016/1aaq/1aaq_pocket.pdb
REMARK  220 active torsions:
REMARK  status: ('A' for Active; 'I' for Inactive)
REMARK    1  A    between atoms: _1  and  _3
REMARK    2  A    between atoms: _3  and  _4
REMARK    3  A    between atoms: _3  and  _6
REMARK    4  A    between atoms: _6  and  _7
REMARK    5  A    between atoms: _7  and  _8
REMARK    6  A    between atoms: _8  and  _9
REMARK    7  A    between atoms: _18  and  _20
REMARK    8  A    between atoms: _20  and  _21
REMARK    9  A    between atoms: _20  and  _23
REMARK   10  A    between atoms: _23  and  _24
REMARK   11  A    between atoms: _27  and  _29
REMARK   12  A    between atoms: _29  and  _30
REMARK   13  A    between atoms: _29  and  _32
REMARK   14  A    between atoms: _32  and  _33
REMARK   15  A    between atoms: _36  and  _38
REMARK   16  A    between atoms: _38  and  _39
REMARK   17  A    between atoms: _38  and  _41
REMARK   18  A    between atoms: _41  and  _42
REMARK   19  A    between atoms: _45  and  _47
REMARK   20  A    between atoms: _47  and  _48
REMARK   21  A    between atoms: _47  and  _50
REMARK   22  A    between atoms: _50  and  _51
REMARK   23  A    between atoms: _54  and  _56
REMARK   24  A    between atoms: _56  and  _57
REMARK   25  A    between atoms: _59  and  _61
REMARK   26  A    between atoms: _61  and  _62
REMARK   27  A    between atoms: _65  and  _67
REMARK   28  A    between atoms: _67  and  _68
REMARK   29  A    between atoms: _67  and  _70
REMARK   30  A    between atoms: _70  and  _71
REMARK   31  A    between atoms: _74  and  _76
REMARK   32  A    between atoms: _76  and  _77
REMARK   33  A    between atoms: _76  and  _79
REMARK   34  A    between atoms: _79  and  _80
REMARK   35  A    between atoms: _83  and  _85
REMARK   36  A    between atoms: _85  and  _86
REMARK   37  A    between atoms: _85  and  _88
REMARK   38  A    between atoms: _88  and  _89
REMARK   39  A    between atoms: _92  and  _94
REMARK   40  A    between atoms: _94  and  _95
REMARK   41  A    between atoms: _94  and  _97
REMARK   42  A    between atoms: _100  and  _102
REMARK   43  A    between atoms: _102  and  _103
REMARK   44  A    between atoms: _102  and  _105
REMARK   45  A    between atoms: _106  and  _107
REMARK   46  A    between atoms: _107  and  _108
REMARK   47  A    between atoms: _108  and  _109
REMARK   48  A    between atoms: _113  and  _115
REMARK   49  A    between atoms: _115  and  _116
REMARK   50  A    between atoms: _115  and  _118
REMARK   51  A    between atoms: _118  and  _119
REMARK   52  A    between atoms: _119  and  _120
REMARK   53  A    between atoms: _122  and  _124
REMARK   54  A    between atoms: _124  and  _125
REMARK   55  A    between atoms: _124  and  _127
REMARK   56  A    between atoms: _127  and  _128
REMARK   57  A    between atoms: _131  and  _133
REMARK   58  A    between atoms: _133  and  _134
REMARK   59  A    between atoms: _136  and  _138
REMARK   60  A    between atoms: _138  and  _139
REMARK   61  A    between atoms: _141  and  _143
REMARK   62  A    between atoms: _143  and  _144
REMARK   63  A    between atoms: _143  and  _146
REMARK   64  A    between atoms: _146  and  _147
REMARK   65  A    between atoms: _150  and  _152
REMARK   66  A    between atoms: _152  and  _153
REMARK   67  A    between atoms: _155  and  _157
REMARK   68  A    between atoms: _157  and  _158
REMARK   69  A    between atoms: _160  and  _162
REMARK   70  A    between atoms: _162  and  _163
REMARK   71  A    between atoms: _162  and  _165
REMARK   72  A    between atoms: _165  and  _166
REMARK   73  A    between atoms: _172  and  _174
REMARK   74  A    between atoms: _174  and  _175
REMARK   75  A    between atoms: _174  and  _177
REMARK   76  A    between atoms: _177  and  _178
REMARK   77  A    between atoms: _181  and  _183
REMARK   78  A    between atoms: _183  and  _184
REMARK   79  A    between atoms: _183  and  _186
REMARK   80  A    between atoms: _186  and  _187
REMARK   81  A    between atoms: _190  and  _192
REMARK   82  A    between atoms: _192  and  _193
REMARK   83  A    between atoms: _192  and  _195
REMARK   84  A    between atoms: _195  and  _196
REMARK   85  A    between atoms: _200  and  _201
REMARK   86  A    between atoms: _206  and  _208
REMARK   87  A    between atoms: _208  and  _209
REMARK   88  A    between atoms: _208  and  _211
REMARK   89  A    between atoms: _214  and  _216
REMARK   90  A    between atoms: _216  and  _217
REMARK   91  A    between atoms: _216  and  _219
REMARK   92  A    between atoms: _219  and  _220
REMARK   93  A    between atoms: _223  and  _225
REMARK   94  A    between atoms: _225  and  _226
REMARK   95  A    between atoms: _225  and  _228
REMARK   96  A    between atoms: _228  and  _229
REMARK   97  A    between atoms: _232  and  _234
REMARK   98  A    between atoms: _234  and  _235
REMARK   99  A    between atoms: _237  and  _239
REMARK  100  A    between atoms: _239  and  _240
REMARK  101  A    between atoms: _239  and  _242
REMARK  102  A    between atoms: _242  and  _243
REMARK  103  A    between atoms: _243  and  _244
REMARK  104  A    between atoms: _244  and  _245
REMARK  105  A    between atoms: _254  and  _256
REMARK  106  A    between atoms: _256  and  _257
REMARK  107  A    between atoms: _256  and  _259
REMARK  108  A    between atoms: _259  and  _260
REMARK  109  A    between atoms: _265  and  _267
REMARK  110  A    between atoms: _267  and  _268
REMARK  111  A    between atoms: _267  and  _270
REMARK  112  A    between atoms: _270  and  _271
REMARK  113  A    between atoms: _271  and  _272
REMARK  114  A    between atoms: _272  and  _273
REMARK  115  A    between atoms: _282  and  _284
REMARK  116  A    between atoms: _284  and  _285
REMARK  117  A    between atoms: _284  and  _287
REMARK  118  A    between atoms: _287  and  _288
REMARK  119  A    between atoms: _291  and  _293
REMARK  120  A    between atoms: _293  and  _294
REMARK  121  A    between atoms: _293  and  _296
REMARK  122  A    between atoms: _296  and  _297
REMARK  123  A    between atoms: _300  and  _302
REMARK  124  A    between atoms: _302  and  _303
REMARK  125  A    between atoms: _302  and  _305
REMARK  126  A    between atoms: _305  and  _306
REMARK  127  A    between atoms: _309  and  _311
REMARK  128  A    between atoms: _311  and  _312
REMARK  129  A    between atoms: _311  and  _314
REMARK  130  A    between atoms: _314  and  _315
REMARK  131  A    between atoms: _318  and  _320
REMARK  132  A    between atoms: _320  and  _321
REMARK  133  A    between atoms: _323  and  _325
REMARK  134  A    between atoms: _325  and  _326
REMARK  135  A    between atoms: _329  and  _331
REMARK  136  A    between atoms: _331  and  _332
REMARK  137  A    between atoms: _331  and  _334
REMARK  138  A    between atoms: _334  and  _335
REMARK  139  A    between atoms: _338  and  _340
REMARK  140  A    between atoms: _340  and  _341
REMARK  141  A    between atoms: _340  and  _343
REMARK  142  A    between atoms: _343  and  _344
REMARK  143  A    between atoms: _347  and  _349
REMARK  144  A    between atoms: _349  and  _350
REMARK  145  A    between atoms: _349  and  _352
REMARK  146  A    between atoms: _352  and  _353
REMARK  147  A    between atoms: _356  and  _358
REMARK  148  A    between atoms: _358  and  _359
REMARK  149  A    between atoms: _358  and  _361
REMARK  150  A    between atoms: _364  and  _366
REMARK  151  A    between atoms: _366  and  _367
REMARK  152  A    between atoms: _366  and  _369
REMARK  153  A    between atoms: _369  and  _370
REMARK  154  A    between atoms: _370  and  _371
REMARK  155  A    between atoms: _371  and  _372
REMARK  156  A    between atoms: _372  and  _373
REMARK  157  A    between atoms: _377  and  _379
REMARK  158  A    between atoms: _379  and  _380
REMARK  159  A    between atoms: _379  and  _382
REMARK  160  A    between atoms: _382  and  _383
REMARK  161  A    between atoms: _383  and  _384
REMARK  162  A    between atoms: _386  and  _388
REMARK  163  A    between atoms: _388  and  _389
REMARK  164  A    between atoms: _388  and  _391
REMARK  165  A    between atoms: _391  and  _392
REMARK  166  A    between atoms: _395  and  _397
REMARK  167  A    between atoms: _397  and  _398
REMARK  168  A    between atoms: _400  and  _402
REMARK  169  A    between atoms: _402  and  _403
REMARK  170  A    between atoms: _405  and  _407
REMARK  171  A    between atoms: _407  and  _408
REMARK  172  A    between atoms: _407  and  _410
REMARK  173  A    between atoms: _410  and  _411
REMARK  174  A    between atoms: _414  and  _416
REMARK  175  A    between atoms: _416  and  _417
REMARK  176  A    between atoms: _419  and  _421
REMARK  177  A    between atoms: _421  and  _422
REMARK  178  A    between atoms: _424  and  _426
REMARK  179  A    between atoms: _426  and  _427
REMARK  180  A    between atoms: _426  and  _429
REMARK  181  A    between atoms: _429  and  _430
REMARK  182  A    between atoms: _436  and  _438
REMARK  183  A    between atoms: _438  and  _439
REMARK  184  A    between atoms: _438  and  _441
REMARK  185  A    between atoms: _441  and  _442
REMARK  186  A    between atoms: _445  and  _447
REMARK  187  A    between atoms: _447  and  _448
REMARK  188  A    between atoms: _447  and  _450
REMARK  189  A    between atoms: _453  and  _455
REMARK  190  A    between atoms: _455  and  _456
REMARK  191  A    between atoms: _455  and  _458
REMARK  192  A    between atoms: _458  and  _459
REMARK  193  A    between atoms: _462  and  _464
REMARK  194  A    between atoms: _464  and  _465
REMARK  195  A    between atoms: _464  and  _467
REMARK  196  A    between atoms: _467  and  _468
REMARK  197  A    between atoms: _472  and  _473
REMARK  198  A    between atoms: _478  and  _480
REMARK  199  A    between atoms: _480  and  _481
REMARK  200  A    between atoms: _480  and  _483
REMARK  201  A    between atoms: _486  and  _488
REMARK  202  A    between atoms: _488  and  _489
REMARK  203  A    between atoms: _488  and  _491
REMARK  204  A    between atoms: _491  and  _492
REMARK  205  A    between atoms: _497  and  _499
REMARK  206  A    between atoms: _499  and  _500
REMARK  207  A    between atoms: _499  and  _502
REMARK  208  A    between atoms: _502  and  _503
REMARK  209  A    between atoms: _506  and  _508
REMARK  210  A    between atoms: _508  and  _509
REMARK  211  A    between atoms: _508  and  _511
REMARK  212  A    between atoms: _511  and  _512
REMARK  213  A    between atoms: _515  and  _517
REMARK  214  A    between atoms: _517  and  _518
REMARK  215  A    between atoms: _520  and  _522
REMARK  216  A    between atoms: _522  and  _523
REMARK  217  A    between atoms: _522  and  _525
REMARK  218  A    between atoms: _525  and  _526
REMARK  219  A    between atoms: _526  and  _527
REMARK  220  A    between atoms: _527  and  _528
REMARK                            x       y       z     vdW  Elec       q    Type
REMARK                         _______ _______ _______ _____ _____    ______ ____
ROOT
ATOM      1  CA  ILE A   5      -5.984  22.809   6.078  0.00  0.00    +0.149 C 
ENDROOT
BRANCH   1   2
ATOM      2  C   ILE A   5      -6.608  23.479   7.309  0.00  0.00    +0.241 C 
ATOM      3  O   ILE A   5      -6.369  22.902   8.371  0.00  0.00    -0.273 OA
ATOM      4  N   ILE A   6      -7.316  24.647   7.269  0.00  0.00    -0.297 N 
ATOM      5  H   ILE A   6      -7.295  25.188   6.381  0.00  0.00    +0.150 HD
BRANCH   4   6
ATOM      6  CA  ILE A   6      -8.102  25.198   8.376  0.00  0.00    +0.149 C 
BRANCH   6   7
ATOM      7  C   ILE A   6      -9.475  24.605   8.131  0.00  0.00    +0.241 C 
ATOM      8  N   GLY A   7     -10.134  23.868   9.011  0.00  0.00    -0.295 N 
ATOM      9  H   GLY A   7      -9.726  23.730   9.958  0.00  0.00    +0.150 HD
ATOM     10  O   ILE A   6      -9.993  24.881   7.059  0.00  0.00    -0.273 OA
BRANCH   8  11
ATOM     11  CA  GLY A   7     -11.401  23.249   8.699  0.00  0.00    +0.176 C 
BRANCH  11  12
ATOM     12  C   GLY A   7     -12.545  23.912   9.415  0.00  0.00    +0.243 C 
ATOM     13  O   GLY A   7     -12.380  24.942  10.103  0.00  0.00    -0.273 OA
ATOM     14  N   ARG A   8     -13.687  23.212   9.326  0.00  0.00    -0.298 N 
ATOM     15  H   ARG A   8     -13.660  22.274   8.878  0.00  0.00    +0.150 HD
BRANCH  14  16
ATOM     16  CA  ARG A   8     -14.944  23.698   9.820  0.00  0.00    +0.137 C 
BRANCH  16  17
ATOM     17  C   ARG A   8     -15.030  23.957  11.314  0.00  0.00    +0.227 C 
ATOM     18  O   ARG A   8     -15.830  24.826  11.735  0.00  0.00    -0.286 OA
ENDBRANCH  16  17
BRANCH  16  19
ATOM     19  CB  ARG A   8     -16.048  22.773   9.399  0.00  0.00    +0.031 C 
BRANCH  19  20
ATOM     20  CG  ARG A   8     -16.642  23.095   8.020  0.00  0.00    +0.045 C 
BRANCH  20  21
ATOM     21  CD  ARG A   8     -17.624  21.986   7.598  0.00  0.00    +0.174 C 
BRANCH  21  22
ATOM     22  NE  ARG A   8     -18.607  21.801   8.645  0.00  0.00    -0.265 N 
ATOM     23  CZ  ARG A   8     -18.697  20.665   9.310  0.00  0.00    +0.342 C 
ATOM     24  NH2 ARG A   8     -19.554  20.511  10.269  0.00  0.00    -0.292 N 
ATOM     25 HH21 ARG A   8     -19.607  19.606  10.779  0.00  0.00    +0.255 HD
ATOM     26 HH22 ARG A   8     -20.189  21.292  10.529  0.00  0.00    +0.255 HD
ATOM     27  NH1 ARG A   8     -17.976  19.626   9.050  0.00  0.00    -0.292 N 
ATOM     28 HH11 ARG A   8     -18.093  18.758   9.611  0.00  0.00    +0.255 HD
ATOM     29 HH12 ARG A   8     -17.278  19.657   8.280  0.00  0.00    +0.255 HD
ATOM     30  HE  ARG A   8     -19.256  22.580   8.878  0.00  0.00    +0.259 HD
ENDBRANCH  21  22
ENDBRANCH  20  21
ENDBRANCH  19  20
ENDBRANCH  16  19
ENDBRANCH  14  16
ENDBRANCH  11  12
ENDBRANCH   8  11
ENDBRANCH   6   7
BRANCH   6  31
ATOM     31  CB  ILE A   6      -8.238  26.700   8.291  0.00  0.00    +0.027 C 
ATOM     32  CG2 ILE A   6      -9.104  27.142   9.432  0.00  0.00    +0.002 C 
BRANCH  31  33
ATOM     33  CG1 ILE A   6      -6.895  27.399   8.415  0.00  0.00    +0.002 C 
ATOM     34  CD1 ILE A   6      -5.962  27.012   9.607  0.00  0.00    +0.000 C 
ENDBRANCH  31  33
ENDBRANCH   6  31
ENDBRANCH   4   6
ENDBRANCH   1   2
BRANCH   1  36
ATOM     35  C   ASN A   4      -3.584  23.309   5.546  0.00  0.00    +0.241 C 
ATOM     36  N   ILE A   5      -4.535  22.797   6.336  0.00  0.00    -0.297 N 
ATOM     37  H   ILE A   5      -4.219  22.347   7.219  0.00  0.00    +0.150 HD
ATOM     38  O   ASN A   4      -3.885  23.965   4.546  0.00  0.00    -0.273 OA
BRANCH  35  39
ATOM     39  CA  ASN A   4      -2.097  23.108   5.910  0.00  0.00    +0.158 C 
BRANCH  39  42
ATOM     40  C   VAL A   3      -1.538  21.543   4.196  0.00  0.00    +0.241 C 
ATOM     41  O   VAL A   3      -2.183  20.684   4.768  0.00  0.00    -0.273 OA
ATOM     42  N   ASN A   4      -1.343  22.715   4.730  0.00  0.00    -0.297 N 
ATOM     43  H   ASN A   4      -0.649  23.368   4.313  0.00  0.00    +0.150 HD
BRANCH  40  44
ATOM     44  CA  VAL A   3      -0.893  21.227   2.886  0.00  0.00    +0.149 C 
BRANCH  44  46
ATOM     45  C   PRO A   2       0.292  19.296   2.227  0.00  0.00    +0.241 C 
ATOM     46  N   VAL A   3      -0.688  19.817   2.948  0.00  0.00    -0.297 N 
ATOM     47  H   VAL A   3      -1.292  19.215   3.543  0.00  0.00    +0.150 HD
ATOM     48  O   PRO A   2       1.073  20.023   1.593  0.00  0.00    -0.273 OA
BRANCH  45  55
ATOM     49  C   THR A   1      -0.025  16.923   4.519  0.00  0.00    +0.244 C 
ATOM     50  O   THR A   1       1.121  17.221   4.888  0.00  0.00    -0.273 OA
ATOM     51  N   PRO A   2      -0.372  17.065   3.215  0.00  0.00    -0.272 N 
ATOM     52  CD  PRO A   2      -1.387  16.273   2.507  0.00  0.00    +0.094 C 
ATOM     53  CG  PRO A   2      -1.446  16.839   1.100  0.00  0.00    +0.024 C 
ATOM     54  CB  PRO A   2      -0.003  17.161   0.884  0.00  0.00    +0.031 C 
ATOM     55  CA  PRO A   2       0.423  17.777   2.215  0.00  0.00    +0.152 C 
BRANCH  49  56
ATOM     56  CA  THR A   1      -1.024  16.389   5.559  0.00  0.00    +0.172 C 
BRANCH  56  57
ATOM     57  N   THR A   1      -0.276  15.862   6.695  0.00  0.00    -0.236 NA
ATOM     58  H   THR A   1      -0.277  16.383   7.595  0.00  0.00    +0.142 HD
ENDBRANCH  56  57
BRANCH  56  59
ATOM     59  CB  THR A   1      -1.959  17.492   6.041  0.00  0.00    +0.135 C 
ATOM     60  CG2 THR A   1      -1.223  18.512   6.821  0.00  0.00    +0.034 C 
BRANCH  59  61
ATOM     61  OG1 THR A   1      -2.631  18.025   4.898  0.00  0.00    -0.383 OA
ATOM     62  HG1 THR A   1      -3.246  18.746   5.185  0.00  0.00    +0.210 HD
ENDBRANCH  59  61
ENDBRANCH  56  59
ENDBRANCH  49  56
ENDBRANCH  45  55
ENDBRANCH  44  46
BRANCH  44  63
ATOM     63  CB  VAL A   3      -1.772  21.449   1.606  0.00  0.00    +0.027 C 
ATOM     64  CG2 VAL A   3      -3.189  20.913   1.805  0.00  0.00    +0.002 C 
ATOM     65  CG1 VAL A   3      -1.743  22.890   1.261  0.00  0.00    +0.002 C 
ENDBRANCH  44  63
ENDBRANCH  40  44
ENDBRANCH  39  42
BRANCH  39  66
ATOM     66  CB  ASN A   4      -1.475  24.399   6.477  0.00  0.00    +0.114 C 
BRANCH  66  67
ATOM     67  CG  ASN A   4      -0.060  24.144   6.987  0.00  0.00    +0.222 C 
ATOM     68  OD1 ASN A   4       0.225  23.100   7.565  0.00  0.00    -0.275 OA
ATOM     69  ND2 ASN A   4       0.937  24.964   6.745  0.00  0.00    -0.329 N 
ATOM     70 HD21 ASN A   4       1.902  24.711   7.040  0.00  0.00    +0.145 HD
ATOM     71 HD22 ASN A   4       0.762  25.866   6.258  0.00  0.00    +0.145 HD
ENDBRANCH  66  67
ENDBRANCH  39  66
ENDBRANCH  35  39
ENDBRANCH   1  36
BRANCH   1  72
ATOM     72  CB  ILE A   5      -6.519  21.296   5.921  0.00  0.00    +0.027 C 
ATOM     73  CG2 ILE A   5      -8.008  21.202   6.098  0.00  0.00    +0.002 C 
BRANCH  72  74
ATOM     74  CG1 ILE A   5      -6.006  20.729   4.552  0.00  0.00    +0.002 C 
ATOM     75  CD1 ILE A   5      -5.788  19.195   4.407  0.00  0.00    +0.000 C 
ENDBRANCH  72  74
ENDBRANCH   1  72
TORSDOF 28
REMARK  Name = ../refined-set-2016/1aaq/1aaq_pocket.pdb
REMARK  220 active torsions:
REMARK  status: ('A' for Active; 'I' for Inactive)
REMARK    1  A    between atoms: _1  and  _3
REMARK    2  A    between atoms: _3  and  _4
REMARK    3  A    between atoms: _3  and  _6
REMARK    4  A    between atoms: _6  and  _7
REMARK    5  A    between atoms: _7  and  _8
REMARK    6  A    between atoms: _8  and  _9
REMARK    7  A    between atoms: _18  and  _20
REMARK    8  A    between atoms: _20  and  _21
REMARK    9  A    between atoms: _20  and  _23
REMARK   10  A    between atoms: _23  and  _24
REMARK   11  A    between atoms: _27  and  _29
REMARK   12  A    between atoms: _29  and  _30
REMARK   13  A    between atoms: _29  and  _32
REMARK   14  A    between atoms: _32  and  _33
REMARK   15  A    between atoms: _36  and  _38
REMARK   16  A    between atoms: _38  and  _39
REMARK   17  A    between atoms: _38  and  _41
REMARK   18  A    between atoms: _41  and  _42
REMARK   19  A    between atoms: _45  and  _47
REMARK   20  A    between atoms: _47  and  _48
REMARK   21  A    between atoms: _47  and  _50
REMARK   22  A    between atoms: _50  and  _51
REMARK   23  A    between atoms: _54  and  _56
REMARK   24  A    between atoms: _56  and  _57
REMARK   25  A    between atoms: _59  and  _61
REMARK   26  A    between atoms: _61  and  _62
REMARK   27  A    between atoms: _65  and  _67
REMARK   28  A    between atoms: _67  and  _68
REMARK   29  A    between atoms: _67  and  _70
REMARK   30  A    between atoms: _70  and  _71
REMARK   31  A    between atoms: _74  and  _76
REMARK   32  A    between atoms: _76  and  _77
REMARK   33  A    between atoms: _76  and  _79
REMARK   34  A    between atoms: _79  and  _80
REMARK   35  A    between atoms: _83  and  _85
REMARK   36  A    between atoms: _85  and  _86
REMARK   37  A    between atoms: _85  and  _88
REMARK   38  A    between atoms: _88  and  _89
REMARK   39  A    between atoms: _92  and  _94
REMARK   40  A    between atoms: _94  and  _95
REMARK   41  A    between atoms: _94  and  _97
REMARK   42  A    between atoms: _100  and  _102
REMARK   43  A    between atoms: _102  and  _103
REMARK   44  A    between atoms: _102  and  _105
REMARK   45  A    between atoms: _106  and  _107
REMARK   46  A    between atoms: _107  and  _108
REMARK   47  A    between atoms: _108  and  _109
REMARK   48  A    between atoms: _113  and  _115
REMARK   49  A    between atoms: _115  and  _116
REMARK   50  A    between atoms: _115  and  _118
REMARK   51  A    between atoms: _118  and  _119
REMARK   52  A    between atoms: _119  and  _120
REMARK   53  A    between atoms: _122  and  _124
REMARK   54  A    between atoms: _124  and  _125
REMARK   55  A    between atoms: _124  and  _127
REMARK   56  A    between atoms: _127  and  _128
REMARK   57  A    between atoms: _131  and  _133
REMARK   58  A    between atoms: _133  and  _134
REMARK   59  A    between atoms: _136  and  _138
REMARK   60  A    between atoms: _138  and  _139
REMARK   61  A    between atoms: _141  and  _143
REMARK   62  A    between atoms: _143  and  _144
REMARK   63  A    between atoms: _143  and  _146
REMARK   64  A    between atoms: _146  and  _147
REMARK   65  A    between atoms: _150  and  _152
REMARK   66  A    between atoms: _152  and  _153
REMARK   67  A    between atoms: _155  and  _157
REMARK   68  A    between atoms: _157  and  _158
REMARK   69  A    between atoms: _160  and  _162
REMARK   70  A    between atoms: _162  and  _163
REMARK   71  A    between atoms: _162  and  _165
REMARK   72  A    between atoms: _165  and  _166
REMARK   73  A    between atoms: _172  and  _174
REMARK   74  A    between atoms: _174  and  _175
REMARK   75  A    between atoms: _174  and  _177
REMARK   76  A    between atoms: _177  and  _178
REMARK   77  A    between atoms: _181  and  _183
REMARK   78  A    between atoms: _183  and  _184
REMARK   79  A    between atoms: _183  and  _186
REMARK   80  A    between atoms: _186  and  _187
REMARK   81  A    between atoms: _190  and  _192
REMARK   82  A    between atoms: _192  and  _193
REMARK   83  A    between atoms: _192  and  _195
REMARK   84  A    between atoms: _195  and  _196
REMARK   85  A    between atoms: _200  and  _201
REMARK   86  A    between atoms: _206  and  _208
REMARK   87  A    between atoms: _208  and  _209
REMARK   88  A    between atoms: _208  and  _211
REMARK   89  A    between atoms: _214  and  _216
REMARK   90  A    between atoms: _216  and  _217
REMARK   91  A    between atoms: _216  and  _219
REMARK   92  A    between atoms: _219  and  _220
REMARK   93  A    between atoms: _223  and  _225
REMARK   94  A    between atoms: _225  and  _226
REMARK   95  A    between atoms: _225  and  _228
REMARK   96  A    between atoms: _228  and  _229
REMARK   97  A    between atoms: _232  and  _234
REMARK   98  A    between atoms: _234  and  _235
REMARK   99  A    between atoms: _237  and  _239
REMARK  100  A    between atoms: _239  and  _240
REMARK  101  A    between atoms: _239  and  _242
REMARK  102  A    between atoms: _242  and  _243
REMARK  103  A    between atoms: _243  and  _244
REMARK  104  A    between atoms: _244  and  _245
REMARK  105  A    between atoms: _254  and  _256
REMARK  106  A    between atoms: _256  and  _257
REMARK  107  A    between atoms: _256  and  _259
REMARK  108  A    between atoms: _259  and  _260
REMARK  109  A    between atoms: _265  and  _267
REMARK  110  A    between atoms: _267  and  _268
REMARK  111  A    between atoms: _267  and  _270
REMARK  112  A    between atoms: _270  and  _271
REMARK  113  A    between atoms: _271  and  _272
REMARK  114  A    between atoms: _272  and  _273
REMARK  115  A    between atoms: _282  and  _284
REMARK  116  A    between atoms: _284  and  _285
REMARK  117  A    between atoms: _284  and  _287
REMARK  118  A    between atoms: _287  and  _288
REMARK  119  A    between atoms: _291  and  _293
REMARK  120  A    between atoms: _293  and  _294
REMARK  121  A    between atoms: _293  and  _296
REMARK  122  A    between atoms: _296  and  _297
REMARK  123  A    between atoms: _300  and  _302
REMARK  124  A    between atoms: _302  and  _303
REMARK  125  A    between atoms: _302  and  _305
REMARK  126  A    between atoms: _305  and  _306
REMARK  127  A    between atoms: _309  and  _311
REMARK  128  A    between atoms: _311  and  _312
REMARK  129  A    between atoms: _311  and  _314
REMARK  130  A    between atoms: _314  and  _315
REMARK  131  A    between atoms: _318  and  _320
REMARK  132  A    between atoms: _320  and  _321
REMARK  133  A    between atoms: _323  and  _325
REMARK  134  A    between atoms: _325  and  _326
REMARK  135  A    between atoms: _329  and  _331
REMARK  136  A    between atoms: _331  and  _332
REMARK  137  A    between atoms: _331  and  _334
REMARK  138  A    between atoms: _334  and  _335
REMARK  139  A    between atoms: _338  and  _340
REMARK  140  A    between atoms: _340  and  _341
REMARK  141  A    between atoms: _340  and  _343
REMARK  142  A    between atoms: _343  and  _344
REMARK  143  A    between atoms: _347  and  _349
REMARK  144  A    between atoms: _349  and  _350
REMARK  145  A    between atoms: _349  and  _352
REMARK  146  A    between atoms: _352  and  _353
REMARK  147  A    between atoms: _356  and  _358
REMARK  148  A    between atoms: _358  and  _359
REMARK  149  A    between atoms: _358  and  _361
REMARK  150  A    between atoms: _364  and  _366
REMARK  151  A    between atoms: _366  and  _367
REMARK  152  A    between atoms: _366  and  _369
REMARK  153  A    between atoms: _369  and  _370
REMARK  154  A    between atoms: _370  and  _371
REMARK  155  A    between atoms: _371  and  _372
REMARK  156  A    between atoms: _372  and  _373
REMARK  157  A    between atoms: _377  and  _379
REMARK  158  A    between atoms: _379  and  _380
REMARK  159  A    between atoms: _379  and  _382
REMARK  160  A    between atoms: _382  and  _383
REMARK  161  A    between atoms: _383  and  _384
REMARK  162  A    between atoms: _386  and  _388
REMARK  163  A    between atoms: _388  and  _389
REMARK  164  A    between atoms: _388  and  _391
REMARK  165  A    between atoms: _391  and  _392
REMARK  166  A    between atoms: _395  and  _397
REMARK  167  A    between atoms: _397  and  _398
REMARK  168  A    between atoms: _400  and  _402
REMARK  169  A    between atoms: _402  and  _403
REMARK  170  A    between atoms: _405  and  _407
REMARK  171  A    between atoms: _407  and  _408
REMARK  172  A    between atoms: _407  and  _410
REMARK  173  A    between atoms: _410  and  _411
REMARK  174  A    between atoms: _414  and  _416
REMARK  175  A    between atoms: _416  and  _417
REMARK  176  A    between atoms: _419  and  _421
REMARK  177  A    between atoms: _421  and  _422
REMARK  178  A    between atoms: _424  and  _426
REMARK  179  A    between atoms: _426  and  _427
REMARK  180  A    between atoms: _426  and  _429
REMARK  181  A    between atoms: _429  and  _430
REMARK  182  A    between atoms: _436  and  _438
REMARK  183  A    between atoms: _438  and  _439
REMARK  184  A    between atoms: _438  and  _441
REMARK  185  A    between atoms: _441  and  _442
REMARK  186  A    between atoms: _445  and  _447
REMARK  187  A    between atoms: _447  and  _448
REMARK  188  A    between atoms: _447  and  _450
REMARK  189  A    between atoms: _453  and  _455
REMARK  190  A    between atoms: _455  and  _456
REMARK  191  A    between atoms: _455  and  _458
REMARK  192  A    between atoms: _458  and  _459
REMARK  193  A    between atoms: _462  and  _464
REMARK  194  A    between atoms: _464  and  _465
REMARK  195  A    between atoms: _464  and  _467
REMARK  196  A    between atoms: _467  and  _468
REMARK  197  A    between atoms: _472  and  _473
REMARK  198  A    between atoms: _478  and  _480
REMARK  199  A    between atoms: _480  and  _481
REMARK  200  A    between atoms: _480  and  _483
REMARK  201  A    between atoms: _486  and  _488
REMARK  202  A    between atoms: _488  and  _489
REMARK  203  A    between atoms: _488  and  _491
REMARK  204  A    between atoms: _491  and  _492
REMARK  205  A    between atoms: _497  and  _499
REMARK  206  A    between atoms: _499  and  _500
REMARK  207  A    between atoms: _499  and  _502
REMARK  208  A    between atoms: _502  and  _503
REMARK  209  A    between atoms: _506  and  _508
REMARK  210  A    between atoms: _508  and  _509
REMARK  211  A    between atoms: _508  and  _511
REMARK  212  A    between atoms: _511  and  _512
REMARK  213  A    between atoms: _515  and  _517
REMARK  214  A    between atoms: _517  and  _518
REMARK  215  A    between atoms: _520  and  _522
REMARK  216  A    between atoms: _522  and  _523
REMARK  217  A    between atoms: _522  and  _525
REMARK  218  A    between atoms: _525  and  _526
REMARK  219  A    between atoms: _526  and  _527
REMARK  220  A    between atoms: _527  and  _528
REMARK                            x       y       z     vdW  Elec       q    Type
REMARK                         _______ _______ _______ _____ _____    ______ ____
ROOT
ATOM      1  O   HOH     1      -8.486  14.138   0.725  0.00  0.00    +0.000 OA
ENDROOT
TORSDOF 0
