REMARK  Name = ../refined-set-2016/1g4o/1g4o_pocket.pdb
REMARK  137 active torsions:
REMARK  status: ('A' for Active; 'I' for Inactive)
REMARK    1  A    between atoms: _1  and  _3
REMARK    2  A    between atoms: _3  and  _4
REMARK    3  A    between atoms: _3  and  _6
REMARK    4  A    between atoms: _6  and  _7
REMARK    5  A    between atoms: _17  and  _19
REMARK    6  A    between atoms: _19  and  _20
REMARK    7  A    between atoms: _19  and  _22
REMARK    8  A    between atoms: _22  and  _23
REMARK    9  A    between atoms: _28  and  _29
REMARK   10  A    between atoms: _31  and  _33
REMARK   11  A    between atoms: _33  and  _34
REMARK   12  A    between atoms: _33  and  _36
REMARK   13  A    between atoms: _36  and  _37
REMARK   14  A    between atoms: _40  and  _41
REMARK   15  A    between atoms: _46  and  _48
REMARK   16  A    between atoms: _48  and  _49
REMARK   17  A    between atoms: _48  and  _51
REMARK   18  A    between atoms: _51  and  _52
REMARK   19  A    between atoms: _57  and  _59
REMARK   20  A    between atoms: _59  and  _60
REMARK   21  A    between atoms: _59  and  _62
REMARK   22  A    between atoms: _62  and  _63
REMARK   23  A    between atoms: _68  and  _70
REMARK   24  A    between atoms: _70  and  _71
REMARK   25  A    between atoms: _70  and  _73
REMARK   26  A    between atoms: _73  and  _74
REMARK   27  A    between atoms: _77  and  _79
REMARK   28  A    between atoms: _79  and  _80
REMARK   29  A    between atoms: _79  and  _82
REMARK   30  A    between atoms: _82  and  _83
REMARK   31  A    between atoms: _83  and  _84
REMARK   32  A    between atoms: _89  and  _91
REMARK   33  A    between atoms: _91  and  _92
REMARK   34  A    between atoms: _91  and  _94
REMARK   35  A    between atoms: _94  and  _95
REMARK   36  A    between atoms: _101  and  _103
REMARK   37  A    between atoms: _114  and  _117
REMARK   38  A    between atoms: _117  and  _118
REMARK   39  A    between atoms: _126  and  _127
REMARK   40  A    between atoms: _135  and  _137
REMARK   41  A    between atoms: _137  and  _138
REMARK   42  A    between atoms: _137  and  _140
REMARK   43  A    between atoms: _140  and  _141
REMARK   44  A    between atoms: _141  and  _142
REMARK   45  A    between atoms: _145  and  _147
REMARK   46  A    between atoms: _147  and  _148
REMARK   47  A    between atoms: _147  and  _150
REMARK   48  A    between atoms: _150  and  _151
REMARK   49  A    between atoms: _156  and  _158
REMARK   50  A    between atoms: _158  and  _159
REMARK   51  A    between atoms: _158  and  _161
REMARK   52  A    between atoms: _161  and  _162
REMARK   53  A    between atoms: _162  and  _163
REMARK   54  A    between atoms: _166  and  _168
REMARK   55  A    between atoms: _168  and  _169
REMARK   56  A    between atoms: _168  and  _171
REMARK   57  A    between atoms: _171  and  _172
REMARK   58  A    between atoms: _175  and  _177
REMARK   59  A    between atoms: _177  and  _178
REMARK   60  A    between atoms: _177  and  _180
REMARK   61  A    between atoms: _180  and  _181
REMARK   62  A    between atoms: _182  and  ZN_386
REMARK   63  A    between atoms: _186  and  _188
REMARK   64  A    between atoms: _188  and  _189
REMARK   65  A    between atoms: _188  and  _191
REMARK   66  A    between atoms: _191  and  _192
REMARK   67  A    between atoms: _195  and  _197
REMARK   68  A    between atoms: _197  and  _198
REMARK   69  A    between atoms: _197  and  _200
REMARK   70  A    between atoms: _203  and  _205
REMARK   71  A    between atoms: _205  and  _206
REMARK   72  A    between atoms: _205  and  _208
REMARK   73  A    between atoms: _208  and  _209
REMARK   74  A    between atoms: _214  and  _216
REMARK   75  A    between atoms: _216  and  _217
REMARK   76  A    between atoms: _216  and  _219
REMARK   77  A    between atoms: _222  and  _224
REMARK   78  A    between atoms: _224  and  _225
REMARK   79  A    between atoms: _227  and  _229
REMARK   80  A    between atoms: _229  and  _230
REMARK   81  A    between atoms: _229  and  _232
REMARK   82  A    between atoms: _235  and  _237
REMARK   83  A    between atoms: _237  and  _238
REMARK   84  A    between atoms: _237  and  _240
REMARK   85  A    between atoms: _240  and  _241
REMARK   86  A    between atoms: _244  and  _246
REMARK   87  A    between atoms: _246  and  _247
REMARK   88  A    between atoms: _250  and  _252
REMARK   89  A    between atoms: _252  and  _253
REMARK   90  A    between atoms: _252  and  _255
REMARK   91  A    between atoms: _258  and  _260
REMARK   92  A    between atoms: _260  and  _261
REMARK   93  A    between atoms: _260  and  _263
REMARK   94  A    between atoms: _263  and  _264
REMARK   95  A    between atoms: _267  and  _269
REMARK   96  A    between atoms: _269  and  _270
REMARK   97  A    between atoms: _269  and  _272
REMARK   98  A    between atoms: _272  and  _273
REMARK   99  A    between atoms: _275  and  _277
REMARK  100  A    between atoms: _277  and  _278
REMARK  101  A    between atoms: _277  and  _280
REMARK  102  A    between atoms: _280  and  _281
REMARK  103  A    between atoms: _284  and  _286
REMARK  104  A    between atoms: _286  and  _287
REMARK  105  A    between atoms: _286  and  _289
REMARK  106  A    between atoms: _289  and  _290
REMARK  107  A    between atoms: _293  and  _295
REMARK  108  A    between atoms: _295  and  _296
REMARK  109  A    between atoms: _295  and  _298
REMARK  110  A    between atoms: _298  and  _299
REMARK  111  A    between atoms: _303  and  _304
REMARK  112  A    between atoms: _310  and  _311
REMARK  113  A    between atoms: _316  and  _318
REMARK  114  A    between atoms: _318  and  _319
REMARK  115  A    between atoms: _318  and  _321
REMARK  116  A    between atoms: _321  and  _322
REMARK  117  A    between atoms: _325  and  _327
REMARK  118  A    between atoms: _327  and  _328
REMARK  119  A    between atoms: _327  and  _330
REMARK  120  A    between atoms: _330  and  _331
REMARK  121  A    between atoms: _334  and  _336
REMARK  122  A    between atoms: _336  and  _337
REMARK  123  A    between atoms: _336  and  _339
REMARK  124  A    between atoms: _342  and  _344
REMARK  125  A    between atoms: _344  and  _345
REMARK  126  A    between atoms: _344  and  _347
REMARK  127  A    between atoms: _347  and  _348
REMARK  128  A    between atoms: _358  and  _360
REMARK  129  A    between atoms: _360  and  _361
REMARK  130  A    between atoms: _360  and  _363
REMARK  131  A    between atoms: _363  and  _364
REMARK  132  A    between atoms: _369  and  _371
REMARK  133  A    between atoms: _371  and  _372
REMARK  134  A    between atoms: _371  and  _374
REMARK  135  A    between atoms: _374  and  _375
REMARK  136  A    between atoms: _375  and  _376
REMARK  137  A    between atoms: _376  and  _377
REMARK                            x       y       z     vdW  Elec       q    Type
REMARK                         _______ _______ _______ _____ _____    ______ ____
ROOT
ATOM      1  CG  TRP A   1       5.682   0.260  12.120  0.00  0.00    -0.002 A 
ATOM      2  CD2 TRP A   1       4.314  -0.191  12.005  0.00  0.00    +0.013 A 
ATOM      3  CE3 TRP A   1       3.686  -1.437  12.141  0.00  0.00    +0.001 A 
ATOM      4  CZ3 TRP A   1       2.304  -1.515  11.966  0.00  0.00    +0.000 A 
ATOM      5  CH2 TRP A   1       1.544  -0.371  11.658  0.00  0.00    +0.001 A 
ATOM      6  CZ2 TRP A   1       2.132   0.860  11.524  0.00  0.00    +0.017 A 
ATOM      7  CE2 TRP A   1       3.521   0.941  11.701  0.00  0.00    +0.056 A 
ATOM      8  NE1 TRP A   1       4.359   2.027  11.639  0.00  0.00    -0.352 N 
ATOM      9  HE1 TRP A   1       4.067   3.004  11.436  0.00  0.00    +0.166 HD
ATOM     10  CD1 TRP A   1       5.657   1.611  11.891  0.00  0.00    +0.068 A 
ENDROOT
BRANCH   1  11
ATOM     11  CB  TRP A   1       6.899  -0.591  12.445  0.00  0.00    +0.053 C 
BRANCH  11  12
ATOM     12  CA  TRP A   1       7.642  -1.164  11.226  0.00  0.00    +0.137 C 
BRANCH  12  13
ATOM     13  N   TRP A   1       8.224  -0.084  10.437  0.00  0.00    -0.239 NA
ATOM     14  H   TRP A   1       7.992   0.898  10.687  0.00  0.00    +0.142 HD
ENDBRANCH  12  13
BRANCH  12  15
ATOM     15  C   TRP A   1       6.697  -2.048  10.416  0.00  0.00    +0.224 C 
ATOM     16  O   TRP A   1       6.151  -1.619   9.385  0.00  0.00    -0.287 OA
ENDBRANCH  12  15
ENDBRANCH  11  12
ENDBRANCH   1  11
TORSDOF 4
REMARK  Name = ../refined-set-2016/1g4o/1g4o_pocket.pdb
REMARK  137 active torsions:
REMARK  status: ('A' for Active; 'I' for Inactive)
REMARK    1  A    between atoms: _1  and  _3
REMARK    2  A    between atoms: _3  and  _4
REMARK    3  A    between atoms: _3  and  _6
REMARK    4  A    between atoms: _6  and  _7
REMARK    5  A    between atoms: _17  and  _19
REMARK    6  A    between atoms: _19  and  _20
REMARK    7  A    between atoms: _19  and  _22
REMARK    8  A    between atoms: _22  and  _23
REMARK    9  A    between atoms: _28  and  _29
REMARK   10  A    between atoms: _31  and  _33
REMARK   11  A    between atoms: _33  and  _34
REMARK   12  A    between atoms: _33  and  _36
REMARK   13  A    between atoms: _36  and  _37
REMARK   14  A    between atoms: _40  and  _41
REMARK   15  A    between atoms: _46  and  _48
REMARK   16  A    between atoms: _48  and  _49
REMARK   17  A    between atoms: _48  and  _51
REMARK   18  A    between atoms: _51  and  _52
REMARK   19  A    between atoms: _57  and  _59
REMARK   20  A    between atoms: _59  and  _60
REMARK   21  A    between atoms: _59  and  _62
REMARK   22  A    between atoms: _62  and  _63
REMARK   23  A    between atoms: _68  and  _70
REMARK   24  A    between atoms: _70  and  _71
REMARK   25  A    between atoms: _70  and  _73
REMARK   26  A    between atoms: _73  and  _74
REMARK   27  A    between atoms: _77  and  _79
REMARK   28  A    between atoms: _79  and  _80
REMARK   29  A    between atoms: _79  and  _82
REMARK   30  A    between atoms: _82  and  _83
REMARK   31  A    between atoms: _83  and  _84
REMARK   32  A    between atoms: _89  and  _91
REMARK   33  A    between atoms: _91  and  _92
REMARK   34  A    between atoms: _91  and  _94
REMARK   35  A    between atoms: _94  and  _95
REMARK   36  A    between atoms: _101  and  _103
REMARK   37  A    between atoms: _114  and  _117
REMARK   38  A    between atoms: _117  and  _118
REMARK   39  A    between atoms: _126  and  _127
REMARK   40  A    between atoms: _135  and  _137
REMARK   41  A    between atoms: _137  and  _138
REMARK   42  A    between atoms: _137  and  _140
REMARK   43  A    between atoms: _140  and  _141
REMARK   44  A    between atoms: _141  and  _142
REMARK   45  A    between atoms: _145  and  _147
REMARK   46  A    between atoms: _147  and  _148
REMARK   47  A    between atoms: _147  and  _150
REMARK   48  A    between atoms: _150  and  _151
REMARK   49  A    between atoms: _156  and  _158
REMARK   50  A    between atoms: _158  and  _159
REMARK   51  A    between atoms: _158  and  _161
REMARK   52  A    between atoms: _161  and  _162
REMARK   53  A    between atoms: _162  and  _163
REMARK   54  A    between atoms: _166  and  _168
REMARK   55  A    between atoms: _168  and  _169
REMARK   56  A    between atoms: _168  and  _171
REMARK   57  A    between atoms: _171  and  _172
REMARK   58  A    between atoms: _175  and  _177
REMARK   59  A    between atoms: _177  and  _178
REMARK   60  A    between atoms: _177  and  _180
REMARK   61  A    between atoms: _180  and  _181
REMARK   62  A    between atoms: _182  and  ZN_386
REMARK   63  A    between atoms: _186  and  _188
REMARK   64  A    between atoms: _188  and  _189
REMARK   65  A    between atoms: _188  and  _191
REMARK   66  A    between atoms: _191  and  _192
REMARK   67  A    between atoms: _195  and  _197
REMARK   68  A    between atoms: _197  and  _198
REMARK   69  A    between atoms: _197  and  _200
REMARK   70  A    between atoms: _203  and  _205
REMARK   71  A    between atoms: _205  and  _206
REMARK   72  A    between atoms: _205  and  _208
REMARK   73  A    between atoms: _208  and  _209
REMARK   74  A    between atoms: _214  and  _216
REMARK   75  A    between atoms: _216  and  _217
REMARK   76  A    between atoms: _216  and  _219
REMARK   77  A    between atoms: _222  and  _224
REMARK   78  A    between atoms: _224  and  _225
REMARK   79  A    between atoms: _227  and  _229
REMARK   80  A    between atoms: _229  and  _230
REMARK   81  A    between atoms: _229  and  _232
REMARK   82  A    between atoms: _235  and  _237
REMARK   83  A    between atoms: _237  and  _238
REMARK   84  A    between atoms: _237  and  _240
REMARK   85  A    between atoms: _240  and  _241
REMARK   86  A    between atoms: _244  and  _246
REMARK   87  A    between atoms: _246  and  _247
REMARK   88  A    between atoms: _250  and  _252
REMARK   89  A    between atoms: _252  and  _253
REMARK   90  A    between atoms: _252  and  _255
REMARK   91  A    between atoms: _258  and  _260
REMARK   92  A    between atoms: _260  and  _261
REMARK   93  A    between atoms: _260  and  _263
REMARK   94  A    between atoms: _263  and  _264
REMARK   95  A    between atoms: _267  and  _269
REMARK   96  A    between atoms: _269  and  _270
REMARK   97  A    between atoms: _269  and  _272
REMARK   98  A    between atoms: _272  and  _273
REMARK   99  A    between atoms: _275  and  _277
REMARK  100  A    between atoms: _277  and  _278
REMARK  101  A    between atoms: _277  and  _280
REMARK  102  A    between atoms: _280  and  _281
REMARK  103  A    between atoms: _284  and  _286
REMARK  104  A    between atoms: _286  and  _287
REMARK  105  A    between atoms: _286  and  _289
REMARK  106  A    between atoms: _289  and  _290
REMARK  107  A    between atoms: _293  and  _295
REMARK  108  A    between atoms: _295  and  _296
REMARK  109  A    between atoms: _295  and  _298
REMARK  110  A    between atoms: _298  and  _299
REMARK  111  A    between atoms: _303  and  _304
REMARK  112  A    between atoms: _310  and  _311
REMARK  113  A    between atoms: _316  and  _318
REMARK  114  A    between atoms: _318  and  _319
REMARK  115  A    between atoms: _318  and  _321
REMARK  116  A    between atoms: _321  and  _322
REMARK  117  A    between atoms: _325  and  _327
REMARK  118  A    between atoms: _327  and  _328
REMARK  119  A    between atoms: _327  and  _330
REMARK  120  A    between atoms: _330  and  _331
REMARK  121  A    between atoms: _334  and  _336
REMARK  122  A    between atoms: _336  and  _337
REMARK  123  A    between atoms: _336  and  _339
REMARK  124  A    between atoms: _342  and  _344
REMARK  125  A    between atoms: _344  and  _345
REMARK  126  A    between atoms: _344  and  _347
REMARK  127  A    between atoms: _347  and  _348
REMARK  128  A    between atoms: _358  and  _360
REMARK  129  A    between atoms: _360  and  _361
REMARK  130  A    between atoms: _360  and  _363
REMARK  131  A    between atoms: _363  and  _364
REMARK  132  A    between atoms: _369  and  _371
REMARK  133  A    between atoms: _371  and  _372
REMARK  134  A    between atoms: _371  and  _374
REMARK  135  A    between atoms: _374  and  _375
REMARK  136  A    between atoms: _375  and  _376
REMARK  137  A    between atoms: _376  and  _377
REMARK                            x       y       z     vdW  Elec       q    Type
REMARK                         _______ _______ _______ _____ _____    ______ ____
ROOT
ATOM      1  CG  TYR A   1       2.076  -6.951  11.856  0.00  0.00    -0.020 A 
ATOM      2  CD2 TYR A   1       1.652  -6.921  13.188  0.00  0.00    -0.001 A 
ATOM      3  CE2 TYR A   1       0.784  -5.945  13.639  0.00  0.00    +0.036 A 
ATOM      4  CZ  TYR A   1       0.317  -4.976  12.758  0.00  0.00    +0.134 A 
ATOM      5  CE1 TYR A   1       0.721  -4.983  11.426  0.00  0.00    +0.036 A 
ATOM      6  CD1 TYR A   1       1.599  -5.972  10.985  0.00  0.00    -0.001 A 
ENDROOT
BRANCH   4   7
ATOM      7  OH  TYR A   1      -0.554  -4.012  13.220  0.00  0.00    -0.506 OA
ATOM      8  HH  TYR A   1      -0.729  -4.161  14.183  0.00  0.00    +0.292 HD
ENDBRANCH   4   7
BRANCH   1   9
ATOM      9  CB  TYR A   1       3.037  -8.011  11.381  0.00  0.00    +0.051 C 
BRANCH   9  10
ATOM     10  CA  TYR A   1       4.514  -7.623  11.551  0.00  0.00    +0.137 C 
BRANCH  10  11
ATOM     11  N   TYR A   1       4.855  -6.478  10.713  0.00  0.00    -0.239 NA
ATOM     12  H   TYR A   1       4.788  -6.570   9.679  0.00  0.00    +0.142 HD
ENDBRANCH  10  11
BRANCH  10  13
ATOM     13  C   TYR A   1       5.414  -8.819  11.244  0.00  0.00    +0.224 C 
ATOM     14  O   TYR A   1       5.129  -9.946  11.656  0.00  0.00    -0.287 OA
ENDBRANCH  10  13
ENDBRANCH   9  10
ENDBRANCH   1   9
TORSDOF 5
REMARK  Name = ../refined-set-2016/1g4o/1g4o_pocket.pdb
REMARK  137 active torsions:
REMARK  status: ('A' for Active; 'I' for Inactive)
REMARK    1  A    between atoms: _1  and  _3
REMARK    2  A    between atoms: _3  and  _4
REMARK    3  A    between atoms: _3  and  _6
REMARK    4  A    between atoms: _6  and  _7
REMARK    5  A    between atoms: _17  and  _19
REMARK    6  A    between atoms: _19  and  _20
REMARK    7  A    between atoms: _19  and  _22
REMARK    8  A    between atoms: _22  and  _23
REMARK    9  A    between atoms: _28  and  _29
REMARK   10  A    between atoms: _31  and  _33
REMARK   11  A    between atoms: _33  and  _34
REMARK   12  A    between atoms: _33  and  _36
REMARK   13  A    between atoms: _36  and  _37
REMARK   14  A    between atoms: _40  and  _41
REMARK   15  A    between atoms: _46  and  _48
REMARK   16  A    between atoms: _48  and  _49
REMARK   17  A    between atoms: _48  and  _51
REMARK   18  A    between atoms: _51  and  _52
REMARK   19  A    between atoms: _57  and  _59
REMARK   20  A    between atoms: _59  and  _60
REMARK   21  A    between atoms: _59  and  _62
REMARK   22  A    between atoms: _62  and  _63
REMARK   23  A    between atoms: _68  and  _70
REMARK   24  A    between atoms: _70  and  _71
REMARK   25  A    between atoms: _70  and  _73
REMARK   26  A    between atoms: _73  and  _74
REMARK   27  A    between atoms: _77  and  _79
REMARK   28  A    between atoms: _79  and  _80
REMARK   29  A    between atoms: _79  and  _82
REMARK   30  A    between atoms: _82  and  _83
REMARK   31  A    between atoms: _83  and  _84
REMARK   32  A    between atoms: _89  and  _91
REMARK   33  A    between atoms: _91  and  _92
REMARK   34  A    between atoms: _91  and  _94
REMARK   35  A    between atoms: _94  and  _95
REMARK   36  A    between atoms: _101  and  _103
REMARK   37  A    between atoms: _114  and  _117
REMARK   38  A    between atoms: _117  and  _118
REMARK   39  A    between atoms: _126  and  _127
REMARK   40  A    between atoms: _135  and  _137
REMARK   41  A    between atoms: _137  and  _138
REMARK   42  A    between atoms: _137  and  _140
REMARK   43  A    between atoms: _140  and  _141
REMARK   44  A    between atoms: _141  and  _142
REMARK   45  A    between atoms: _145  and  _147
REMARK   46  A    between atoms: _147  and  _148
REMARK   47  A    between atoms: _147  and  _150
REMARK   48  A    between atoms: _150  and  _151
REMARK   49  A    between atoms: _156  and  _158
REMARK   50  A    between atoms: _158  and  _159
REMARK   51  A    between atoms: _158  and  _161
REMARK   52  A    between atoms: _161  and  _162
REMARK   53  A    between atoms: _162  and  _163
REMARK   54  A    between atoms: _166  and  _168
REMARK   55  A    between atoms: _168  and  _169
REMARK   56  A    between atoms: _168  and  _171
REMARK   57  A    between atoms: _171  and  _172
REMARK   58  A    between atoms: _175  and  _177
REMARK   59  A    between atoms: _177  and  _178
REMARK   60  A    between atoms: _177  and  _180
REMARK   61  A    between atoms: _180  and  _181
REMARK   62  A    between atoms: _182  and  ZN_386
REMARK   63  A    between atoms: _186  and  _188
REMARK   64  A    between atoms: _188  and  _189
REMARK   65  A    between atoms: _188  and  _191
REMARK   66  A    between atoms: _191  and  _192
REMARK   67  A    between atoms: _195  and  _197
REMARK   68  A    between atoms: _197  and  _198
REMARK   69  A    between atoms: _197  and  _200
REMARK   70  A    between atoms: _203  and  _205
REMARK   71  A    between atoms: _205  and  _206
REMARK   72  A    between atoms: _205  and  _208
REMARK   73  A    between atoms: _208  and  _209
REMARK   74  A    between atoms: _214  and  _216
REMARK   75  A    between atoms: _216  and  _217
REMARK   76  A    between atoms: _216  and  _219
REMARK   77  A    between atoms: _222  and  _224
REMARK   78  A    between atoms: _224  and  _225
REMARK   79  A    between atoms: _227  and  _229
REMARK   80  A    between atoms: _229  and  _230
REMARK   81  A    between atoms: _229  and  _232
REMARK   82  A    between atoms: _235  and  _237
REMARK   83  A    between atoms: _237  and  _238
REMARK   84  A    between atoms: _237  and  _240
REMARK   85  A    between atoms: _240  and  _241
REMARK   86  A    between atoms: _244  and  _246
REMARK   87  A    between atoms: _246  and  _247
REMARK   88  A    between atoms: _250  and  _252
REMARK   89  A    between atoms: _252  and  _253
REMARK   90  A    between atoms: _252  and  _255
REMARK   91  A    between atoms: _258  and  _260
REMARK   92  A    between atoms: _260  and  _261
REMARK   93  A    between atoms: _260  and  _263
REMARK   94  A    between atoms: _263  and  _264
REMARK   95  A    between atoms: _267  and  _269
REMARK   96  A    between atoms: _269  and  _270
REMARK   97  A    between atoms: _269  and  _272
REMARK   98  A    between atoms: _272  and  _273
REMARK   99  A    between atoms: _275  and  _277
REMARK  100  A    between atoms: _277  and  _278
REMARK  101  A    between atoms: _277  and  _280
REMARK  102  A    between atoms: _280  and  _281
REMARK  103  A    between atoms: _284  and  _286
REMARK  104  A    between atoms: _286  and  _287
REMARK  105  A    between atoms: _286  and  _289
REMARK  106  A    between atoms: _289  and  _290
REMARK  107  A    between atoms: _293  and  _295
REMARK  108  A    between atoms: _295  and  _296
REMARK  109  A    between atoms: _295  and  _298
REMARK  110  A    between atoms: _298  and  _299
REMARK  111  A    between atoms: _303  and  _304
REMARK  112  A    between atoms: _310  and  _311
REMARK  113  A    between atoms: _316  and  _318
REMARK  114  A    between atoms: _318  and  _319
REMARK  115  A    between atoms: _318  and  _321
REMARK  116  A    between atoms: _321  and  _322
REMARK  117  A    between atoms: _325  and  _327
REMARK  118  A    between atoms: _327  and  _328
REMARK  119  A    between atoms: _327  and  _330
REMARK  120  A    between atoms: _330  and  _331
REMARK  121  A    between atoms: _334  and  _336
REMARK  122  A    between atoms: _336  and  _337
REMARK  123  A    between atoms: _336  and  _339
REMARK  124  A    between atoms: _342  and  _344
REMARK  125  A    between atoms: _344  and  _345
REMARK  126  A    between atoms: _344  and  _347
REMARK  127  A    between atoms: _347  and  _348
REMARK  128  A    between atoms: _358  and  _360
REMARK  129  A    between atoms: _360  and  _361
REMARK  130  A    between atoms: _360  and  _363
REMARK  131  A    between atoms: _363  and  _364
REMARK  132  A    between atoms: _369  and  _371
REMARK  133  A    between atoms: _371  and  _372
REMARK  134  A    between atoms: _371  and  _374
REMARK  135  A    between atoms: _374  and  _375
REMARK  136  A    between atoms: _375  and  _376
REMARK  137  A    between atoms: _376  and  _377
REMARK                            x       y       z     vdW  Elec       q    Type
REMARK                         _______ _______ _______ _____ _____    ______ ____
ROOT
ATOM      1  C   SER A   1      -2.386  -3.066  23.471  0.00  0.00    +0.244 C 
ATOM      2  N   PRO A   2      -3.023  -4.221  23.199  0.00  0.00    -0.273 N 
ATOM      3  CA  PRO A   2      -4.228  -4.740  23.847  0.00  0.00    +0.140 C 
ATOM      4  CB  PRO A   2      -4.734  -5.751  22.826  0.00  0.00    +0.030 C 
ATOM      5  CG  PRO A   2      -3.436  -6.371  22.348  0.00  0.00    +0.024 C 
ATOM      6  CD  PRO A   2      -2.569  -5.143  22.137  0.00  0.00    +0.094 C 
ATOM      7  O   SER A   1      -1.453  -2.663  22.782  0.00  0.00    -0.273 OA
ENDROOT
BRANCH   3   8
ATOM      8  C   PRO A   2      -3.832  -5.448  25.127  0.00  0.00    +0.227 C 
ATOM      9  O   PRO A   2      -2.644  -5.597  25.383  0.00  0.00    -0.286 OA
ENDBRANCH   3   8
BRANCH   1  10
ATOM     10  CA  SER A   1      -2.955  -2.173  24.578  0.00  0.00    +0.175 C 
BRANCH  10  11
ATOM     11  N   SER A   1      -1.907  -1.249  25.008  0.00  0.00    -0.236 NA
ATOM     12  H   SER A   1      -1.476  -0.616  24.304  0.00  0.00    +0.142 HD
ENDBRANCH  10  11
BRANCH  10  13
ATOM     13  CB  SER A   1      -4.165  -1.397  24.051  0.00  0.00    +0.163 C 
BRANCH  13  14
ATOM     14  OG  SER A   1      -4.709  -0.554  25.052  0.00  0.00    -0.380 OA
ATOM     15  H   SER A   1      -4.997  -1.103  25.824  0.00  0.00    +0.211 HD
ENDBRANCH  13  14
ENDBRANCH  10  13
ENDBRANCH   1  10
TORSDOF 5
REMARK  Name = ../refined-set-2016/1g4o/1g4o_pocket.pdb
REMARK  137 active torsions:
REMARK  status: ('A' for Active; 'I' for Inactive)
REMARK    1  A    between atoms: _1  and  _3
REMARK    2  A    between atoms: _3  and  _4
REMARK    3  A    between atoms: _3  and  _6
REMARK    4  A    between atoms: _6  and  _7
REMARK    5  A    between atoms: _17  and  _19
REMARK    6  A    between atoms: _19  and  _20
REMARK    7  A    between atoms: _19  and  _22
REMARK    8  A    between atoms: _22  and  _23
REMARK    9  A    between atoms: _28  and  _29
REMARK   10  A    between atoms: _31  and  _33
REMARK   11  A    between atoms: _33  and  _34
REMARK   12  A    between atoms: _33  and  _36
REMARK   13  A    between atoms: _36  and  _37
REMARK   14  A    between atoms: _40  and  _41
REMARK   15  A    between atoms: _46  and  _48
REMARK   16  A    between atoms: _48  and  _49
REMARK   17  A    between atoms: _48  and  _51
REMARK   18  A    between atoms: _51  and  _52
REMARK   19  A    between atoms: _57  and  _59
REMARK   20  A    between atoms: _59  and  _60
REMARK   21  A    between atoms: _59  and  _62
REMARK   22  A    between atoms: _62  and  _63
REMARK   23  A    between atoms: _68  and  _70
REMARK   24  A    between atoms: _70  and  _71
REMARK   25  A    between atoms: _70  and  _73
REMARK   26  A    between atoms: _73  and  _74
REMARK   27  A    between atoms: _77  and  _79
REMARK   28  A    between atoms: _79  and  _80
REMARK   29  A    between atoms: _79  and  _82
REMARK   30  A    between atoms: _82  and  _83
REMARK   31  A    between atoms: _83  and  _84
REMARK   32  A    between atoms: _89  and  _91
REMARK   33  A    between atoms: _91  and  _92
REMARK   34  A    between atoms: _91  and  _94
REMARK   35  A    between atoms: _94  and  _95
REMARK   36  A    between atoms: _101  and  _103
REMARK   37  A    between atoms: _114  and  _117
REMARK   38  A    between atoms: _117  and  _118
REMARK   39  A    between atoms: _126  and  _127
REMARK   40  A    between atoms: _135  and  _137
REMARK   41  A    between atoms: _137  and  _138
REMARK   42  A    between atoms: _137  and  _140
REMARK   43  A    between atoms: _140  and  _141
REMARK   44  A    between atoms: _141  and  _142
REMARK   45  A    between atoms: _145  and  _147
REMARK   46  A    between atoms: _147  and  _148
REMARK   47  A    between atoms: _147  and  _150
REMARK   48  A    between atoms: _150  and  _151
REMARK   49  A    between atoms: _156  and  _158
REMARK   50  A    between atoms: _158  and  _159
REMARK   51  A    between atoms: _158  and  _161
REMARK   52  A    between atoms: _161  and  _162
REMARK   53  A    between atoms: _162  and  _163
REMARK   54  A    between atoms: _166  and  _168
REMARK   55  A    between atoms: _168  and  _169
REMARK   56  A    between atoms: _168  and  _171
REMARK   57  A    between atoms: _171  and  _172
REMARK   58  A    between atoms: _175  and  _177
REMARK   59  A    between atoms: _177  and  _178
REMARK   60  A    between atoms: _177  and  _180
REMARK   61  A    between atoms: _180  and  _181
REMARK   62  A    between atoms: _182  and  ZN_386
REMARK   63  A    between atoms: _186  and  _188
REMARK   64  A    between atoms: _188  and  _189
REMARK   65  A    between atoms: _188  and  _191
REMARK   66  A    between atoms: _191  and  _192
REMARK   67  A    between atoms: _195  and  _197
REMARK   68  A    between atoms: _197  and  _198
REMARK   69  A    between atoms: _197  and  _200
REMARK   70  A    between atoms: _203  and  _205
REMARK   71  A    between atoms: _205  and  _206
REMARK   72  A    between atoms: _205  and  _208
REMARK   73  A    between atoms: _208  and  _209
REMARK   74  A    between atoms: _214  and  _216
REMARK   75  A    between atoms: _216  and  _217
REMARK   76  A    between atoms: _216  and  _219
REMARK   77  A    between atoms: _222  and  _224
REMARK   78  A    between atoms: _224  and  _225
REMARK   79  A    between atoms: _227  and  _229
REMARK   80  A    between atoms: _229  and  _230
REMARK   81  A    between atoms: _229  and  _232
REMARK   82  A    between atoms: _235  and  _237
REMARK   83  A    between atoms: _237  and  _238
REMARK   84  A    between atoms: _237  and  _240
REMARK   85  A    between atoms: _240  and  _241
REMARK   86  A    between atoms: _244  and  _246
REMARK   87  A    between atoms: _246  and  _247
REMARK   88  A    between atoms: _250  and  _252
REMARK   89  A    between atoms: _252  and  _253
REMARK   90  A    between atoms: _252  and  _255
REMARK   91  A    between atoms: _258  and  _260
REMARK   92  A    between atoms: _260  and  _261
REMARK   93  A    between atoms: _260  and  _263
REMARK   94  A    between atoms: _263  and  _264
REMARK   95  A    between atoms: _267  and  _269
REMARK   96  A    between atoms: _269  and  _270
REMARK   97  A    between atoms: _269  and  _272
REMARK   98  A    between atoms: _272  and  _273
REMARK   99  A    between atoms: _275  and  _277
REMARK  100  A    between atoms: _277  and  _278
REMARK  101  A    between atoms: _277  and  _280
REMARK  102  A    between atoms: _280  and  _281
REMARK  103  A    between atoms: _284  and  _286
REMARK  104  A    between atoms: _286  and  _287
REMARK  105  A    between atoms: _286  and  _289
REMARK  106  A    between atoms: _289  and  _290
REMARK  107  A    between atoms: _293  and  _295
REMARK  108  A    between atoms: _295  and  _296
REMARK  109  A    between atoms: _295  and  _298
REMARK  110  A    between atoms: _298  and  _299
REMARK  111  A    between atoms: _303  and  _304
REMARK  112  A    between atoms: _310  and  _311
REMARK  113  A    between atoms: _316  and  _318
REMARK  114  A    between atoms: _318  and  _319
REMARK  115  A    between atoms: _318  and  _321
REMARK  116  A    between atoms: _321  and  _322
REMARK  117  A    between atoms: _325  and  _327
REMARK  118  A    between atoms: _327  and  _328
REMARK  119  A    between atoms: _327  and  _330
REMARK  120  A    between atoms: _330  and  _331
REMARK  121  A    between atoms: _334  and  _336
REMARK  122  A    between atoms: _336  and  _337
REMARK  123  A    between atoms: _336  and  _339
REMARK  124  A    between atoms: _342  and  _344
REMARK  125  A    between atoms: _344  and  _345
REMARK  126  A    between atoms: _344  and  _347
REMARK  127  A    between atoms: _347  and  _348
REMARK  128  A    between atoms: _358  and  _360
REMARK  129  A    between atoms: _360  and  _361
REMARK  130  A    between atoms: _360  and  _363
REMARK  131  A    between atoms: _363  and  _364
REMARK  132  A    between atoms: _369  and  _371
REMARK  133  A    between atoms: _371  and  _372
REMARK  134  A    between atoms: _371  and  _374
REMARK  135  A    between atoms: _374  and  _375
REMARK  136  A    between atoms: _375  and  _376
REMARK  137  A    between atoms: _376  and  _377
REMARK                            x       y       z     vdW  Elec       q    Type
REMARK                         _______ _______ _______ _____ _____    ______ ____
ROOT
ATOM      1  CB  ASN A   1      -2.559   2.456   4.910  0.00  0.00    +0.110 C 
ENDROOT
BRANCH   1   2
ATOM      2  CG  ASN A   1      -2.894   1.781   6.268  0.00  0.00    +0.221 C 
ATOM      3  ND2 ASN A   1      -3.039   2.597   7.303  0.00  0.00    -0.329 N 
ATOM      4 HD21 ASN A   1      -3.274   2.212   8.240  0.00  0.00    +0.145 HD
ATOM      5 HD22 ASN A   1      -2.918   3.622   7.178  0.00  0.00    +0.145 HD
ATOM      6  OD1 ASN A   1      -3.029   0.564   6.374  0.00  0.00    -0.275 OA
ENDBRANCH   1   2
BRANCH   1   7
ATOM      7  CA  ASN A   1      -2.178   1.449   3.787  0.00  0.00    +0.142 C 
BRANCH   7   8
ATOM      8  N   ASN A   1      -3.332   0.623   3.421  0.00  0.00    -0.239 NA
ATOM      9  H   ASN A   1      -3.850   0.102   4.157  0.00  0.00    +0.142 HD
ENDBRANCH   7   8
BRANCH   7  10
ATOM     10  C   ASN A   1      -1.007   0.581   4.233  0.00  0.00    +0.225 C 
ATOM     11  O   ASN A   1      -0.044   1.084   4.820  0.00  0.00    -0.287 OA
ENDBRANCH   7  10
ENDBRANCH   1   7
TORSDOF 4
REMARK  Name = ../refined-set-2016/1g4o/1g4o_pocket.pdb
REMARK  137 active torsions:
REMARK  status: ('A' for Active; 'I' for Inactive)
REMARK    1  A    between atoms: _1  and  _3
REMARK    2  A    between atoms: _3  and  _4
REMARK    3  A    between atoms: _3  and  _6
REMARK    4  A    between atoms: _6  and  _7
REMARK    5  A    between atoms: _17  and  _19
REMARK    6  A    between atoms: _19  and  _20
REMARK    7  A    between atoms: _19  and  _22
REMARK    8  A    between atoms: _22  and  _23
REMARK    9  A    between atoms: _28  and  _29
REMARK   10  A    between atoms: _31  and  _33
REMARK   11  A    between atoms: _33  and  _34
REMARK   12  A    between atoms: _33  and  _36
REMARK   13  A    between atoms: _36  and  _37
REMARK   14  A    between atoms: _40  and  _41
REMARK   15  A    between atoms: _46  and  _48
REMARK   16  A    between atoms: _48  and  _49
REMARK   17  A    between atoms: _48  and  _51
REMARK   18  A    between atoms: _51  and  _52
REMARK   19  A    between atoms: _57  and  _59
REMARK   20  A    between atoms: _59  and  _60
REMARK   21  A    between atoms: _59  and  _62
REMARK   22  A    between atoms: _62  and  _63
REMARK   23  A    between atoms: _68  and  _70
REMARK   24  A    between atoms: _70  and  _71
REMARK   25  A    between atoms: _70  and  _73
REMARK   26  A    between atoms: _73  and  _74
REMARK   27  A    between atoms: _77  and  _79
REMARK   28  A    between atoms: _79  and  _80
REMARK   29  A    between atoms: _79  and  _82
REMARK   30  A    between atoms: _82  and  _83
REMARK   31  A    between atoms: _83  and  _84
REMARK   32  A    between atoms: _89  and  _91
REMARK   33  A    between atoms: _91  and  _92
REMARK   34  A    between atoms: _91  and  _94
REMARK   35  A    between atoms: _94  and  _95
REMARK   36  A    between atoms: _101  and  _103
REMARK   37  A    between atoms: _114  and  _117
REMARK   38  A    between atoms: _117  and  _118
REMARK   39  A    between atoms: _126  and  _127
REMARK   40  A    between atoms: _135  and  _137
REMARK   41  A    between atoms: _137  and  _138
REMARK   42  A    between atoms: _137  and  _140
REMARK   43  A    between atoms: _140  and  _141
REMARK   44  A    between atoms: _141  and  _142
REMARK   45  A    between atoms: _145  and  _147
REMARK   46  A    between atoms: _147  and  _148
REMARK   47  A    between atoms: _147  and  _150
REMARK   48  A    between atoms: _150  and  _151
REMARK   49  A    between atoms: _156  and  _158
REMARK   50  A    between atoms: _158  and  _159
REMARK   51  A    between atoms: _158  and  _161
REMARK   52  A    between atoms: _161  and  _162
REMARK   53  A    between atoms: _162  and  _163
REMARK   54  A    between atoms: _166  and  _168
REMARK   55  A    between atoms: _168  and  _169
REMARK   56  A    between atoms: _168  and  _171
REMARK   57  A    between atoms: _171  and  _172
REMARK   58  A    between atoms: _175  and  _177
REMARK   59  A    between atoms: _177  and  _178
REMARK   60  A    between atoms: _177  and  _180
REMARK   61  A    between atoms: _180  and  _181
REMARK   62  A    between atoms: _182  and  ZN_386
REMARK   63  A    between atoms: _186  and  _188
REMARK   64  A    between atoms: _188  and  _189
REMARK   65  A    between atoms: _188  and  _191
REMARK   66  A    between atoms: _191  and  _192
REMARK   67  A    between atoms: _195  and  _197
REMARK   68  A    between atoms: _197  and  _198
REMARK   69  A    between atoms: _197  and  _200
REMARK   70  A    between atoms: _203  and  _205
REMARK   71  A    between atoms: _205  and  _206
REMARK   72  A    between atoms: _205  and  _208
REMARK   73  A    between atoms: _208  and  _209
REMARK   74  A    between atoms: _214  and  _216
REMARK   75  A    between atoms: _216  and  _217
REMARK   76  A    between atoms: _216  and  _219
REMARK   77  A    between atoms: _222  and  _224
REMARK   78  A    between atoms: _224  and  _225
REMARK   79  A    between atoms: _227  and  _229
REMARK   80  A    between atoms: _229  and  _230
REMARK   81  A    between atoms: _229  and  _232
REMARK   82  A    between atoms: _235  and  _237
REMARK   83  A    between atoms: _237  and  _238
REMARK   84  A    between atoms: _237  and  _240
REMARK   85  A    between atoms: _240  and  _241
REMARK   86  A    between atoms: _244  and  _246
REMARK   87  A    between atoms: _246  and  _247
REMARK   88  A    between atoms: _250  and  _252
REMARK   89  A    between atoms: _252  and  _253
REMARK   90  A    between atoms: _252  and  _255
REMARK   91  A    between atoms: _258  and  _260
REMARK   92  A    between atoms: _260  and  _261
REMARK   93  A    between atoms: _260  and  _263
REMARK   94  A    between atoms: _263  and  _264
REMARK   95  A    between atoms: _267  and  _269
REMARK   96  A    between atoms: _269  and  _270
REMARK   97  A    between atoms: _269  and  _272
REMARK   98  A    between atoms: _272  and  _273
REMARK   99  A    between atoms: _275  and  _277
REMARK  100  A    between atoms: _277  and  _278
REMARK  101  A    between atoms: _277  and  _280
REMARK  102  A    between atoms: _280  and  _281
REMARK  103  A    between atoms: _284  and  _286
REMARK  104  A    between atoms: _286  and  _287
REMARK  105  A    between atoms: _286  and  _289
REMARK  106  A    between atoms: _289  and  _290
REMARK  107  A    between atoms: _293  and  _295
REMARK  108  A    between atoms: _295  and  _296
REMARK  109  A    between atoms: _295  and  _298
REMARK  110  A    between atoms: _298  and  _299
REMARK  111  A    between atoms: _303  and  _304
REMARK  112  A    between atoms: _310  and  _311
REMARK  113  A    between atoms: _316  and  _318
REMARK  114  A    between atoms: _318  and  _319
REMARK  115  A    between atoms: _318  and  _321
REMARK  116  A    between atoms: _321  and  _322
REMARK  117  A    between atoms: _325  and  _327
REMARK  118  A    between atoms: _327  and  _328
REMARK  119  A    between atoms: _327  and  _330
REMARK  120  A    between atoms: _330  and  _331
REMARK  121  A    between atoms: _334  and  _336
REMARK  122  A    between atoms: _336  and  _337
REMARK  123  A    between atoms: _336  and  _339
REMARK  124  A    between atoms: _342  and  _344
REMARK  125  A    between atoms: _344  and  _345
REMARK  126  A    between atoms: _344  and  _347
REMARK  127  A    between atoms: _347  and  _348
REMARK  128  A    between atoms: _358  and  _360
REMARK  129  A    between atoms: _360  and  _361
REMARK  130  A    between atoms: _360  and  _363
REMARK  131  A    between atoms: _363  and  _364
REMARK  132  A    between atoms: _369  and  _371
REMARK  133  A    between atoms: _371  and  _372
REMARK  134  A    between atoms: _371  and  _374
REMARK  135  A    between atoms: _374  and  _375
REMARK  136  A    between atoms: _375  and  _376
REMARK  137  A    between atoms: _376  and  _377
REMARK                            x       y       z     vdW  Elec       q    Type
REMARK                         _______ _______ _______ _____ _____    ______ ____
ROOT
ATOM      1  CB  ASN A   1      -8.512   2.676   6.917  0.00  0.00    +0.110 C 
ENDROOT
BRANCH   1   2
ATOM      2  CG  ASN A   1      -7.395   2.425   7.918  0.00  0.00    +0.221 C 
ATOM      3  ND2 ASN A   1      -7.205   1.179   8.353  0.00  0.00    -0.329 N 
ATOM      4 HD21 ASN A   1      -6.456   0.979   9.046  0.00  0.00    +0.145 HD
ATOM      5 HD22 ASN A   1      -7.806   0.407   7.999  0.00  0.00    +0.145 HD
ATOM      6  OD1 ASN A   1      -6.714   3.375   8.303  0.00  0.00    -0.275 OA
ENDBRANCH   1   2
BRANCH   1   7
ATOM      7  CA  ASN A   1      -9.305   1.422   6.545  0.00  0.00    +0.142 C 
BRANCH   7   8
ATOM      8  N   ASN A   1      -8.455   0.494   5.813  0.00  0.00    -0.239 NA
ATOM      9  H   ASN A   1      -7.861   0.859   5.042  0.00  0.00    +0.142 HD
ENDBRANCH   7   8
BRANCH   7  10
ATOM     10  C   ASN A   1     -10.481   1.913   5.699  0.00  0.00    +0.225 C 
ATOM     11  O   ASN A   1     -10.330   2.122   4.492  0.00  0.00    -0.287 OA
ENDBRANCH   7  10
ENDBRANCH   1   7
TORSDOF 4
REMARK  Name = ../refined-set-2016/1g4o/1g4o_pocket.pdb
REMARK  137 active torsions:
REMARK  status: ('A' for Active; 'I' for Inactive)
REMARK    1  A    between atoms: _1  and  _3
REMARK    2  A    between atoms: _3  and  _4
REMARK    3  A    between atoms: _3  and  _6
REMARK    4  A    between atoms: _6  and  _7
REMARK    5  A    between atoms: _17  and  _19
REMARK    6  A    between atoms: _19  and  _20
REMARK    7  A    between atoms: _19  and  _22
REMARK    8  A    between atoms: _22  and  _23
REMARK    9  A    between atoms: _28  and  _29
REMARK   10  A    between atoms: _31  and  _33
REMARK   11  A    between atoms: _33  and  _34
REMARK   12  A    between atoms: _33  and  _36
REMARK   13  A    between atoms: _36  and  _37
REMARK   14  A    between atoms: _40  and  _41
REMARK   15  A    between atoms: _46  and  _48
REMARK   16  A    between atoms: _48  and  _49
REMARK   17  A    between atoms: _48  and  _51
REMARK   18  A    between atoms: _51  and  _52
REMARK   19  A    between atoms: _57  and  _59
REMARK   20  A    between atoms: _59  and  _60
REMARK   21  A    between atoms: _59  and  _62
REMARK   22  A    between atoms: _62  and  _63
REMARK   23  A    between atoms: _68  and  _70
REMARK   24  A    between atoms: _70  and  _71
REMARK   25  A    between atoms: _70  and  _73
REMARK   26  A    between atoms: _73  and  _74
REMARK   27  A    between atoms: _77  and  _79
REMARK   28  A    between atoms: _79  and  _80
REMARK   29  A    between atoms: _79  and  _82
REMARK   30  A    between atoms: _82  and  _83
REMARK   31  A    between atoms: _83  and  _84
REMARK   32  A    between atoms: _89  and  _91
REMARK   33  A    between atoms: _91  and  _92
REMARK   34  A    between atoms: _91  and  _94
REMARK   35  A    between atoms: _94  and  _95
REMARK   36  A    between atoms: _101  and  _103
REMARK   37  A    between atoms: _114  and  _117
REMARK   38  A    between atoms: _117  and  _118
REMARK   39  A    between atoms: _126  and  _127
REMARK   40  A    between atoms: _135  and  _137
REMARK   41  A    between atoms: _137  and  _138
REMARK   42  A    between atoms: _137  and  _140
REMARK   43  A    between atoms: _140  and  _141
REMARK   44  A    between atoms: _141  and  _142
REMARK   45  A    between atoms: _145  and  _147
REMARK   46  A    between atoms: _147  and  _148
REMARK   47  A    between atoms: _147  and  _150
REMARK   48  A    between atoms: _150  and  _151
REMARK   49  A    between atoms: _156  and  _158
REMARK   50  A    between atoms: _158  and  _159
REMARK   51  A    between atoms: _158  and  _161
REMARK   52  A    between atoms: _161  and  _162
REMARK   53  A    between atoms: _162  and  _163
REMARK   54  A    between atoms: _166  and  _168
REMARK   55  A    between atoms: _168  and  _169
REMARK   56  A    between atoms: _168  and  _171
REMARK   57  A    between atoms: _171  and  _172
REMARK   58  A    between atoms: _175  and  _177
REMARK   59  A    between atoms: _177  and  _178
REMARK   60  A    between atoms: _177  and  _180
REMARK   61  A    between atoms: _180  and  _181
REMARK   62  A    between atoms: _182  and  ZN_386
REMARK   63  A    between atoms: _186  and  _188
REMARK   64  A    between atoms: _188  and  _189
REMARK   65  A    between atoms: _188  and  _191
REMARK   66  A    between atoms: _191  and  _192
REMARK   67  A    between atoms: _195  and  _197
REMARK   68  A    between atoms: _197  and  _198
REMARK   69  A    between atoms: _197  and  _200
REMARK   70  A    between atoms: _203  and  _205
REMARK   71  A    between atoms: _205  and  _206
REMARK   72  A    between atoms: _205  and  _208
REMARK   73  A    between atoms: _208  and  _209
REMARK   74  A    between atoms: _214  and  _216
REMARK   75  A    between atoms: _216  and  _217
REMARK   76  A    between atoms: _216  and  _219
REMARK   77  A    between atoms: _222  and  _224
REMARK   78  A    between atoms: _224  and  _225
REMARK   79  A    between atoms: _227  and  _229
REMARK   80  A    between atoms: _229  and  _230
REMARK   81  A    between atoms: _229  and  _232
REMARK   82  A    between atoms: _235  and  _237
REMARK   83  A    between atoms: _237  and  _238
REMARK   84  A    between atoms: _237  and  _240
REMARK   85  A    between atoms: _240  and  _241
REMARK   86  A    between atoms: _244  and  _246
REMARK   87  A    between atoms: _246  and  _247
REMARK   88  A    between atoms: _250  and  _252
REMARK   89  A    between atoms: _252  and  _253
REMARK   90  A    between atoms: _252  and  _255
REMARK   91  A    between atoms: _258  and  _260
REMARK   92  A    between atoms: _260  and  _261
REMARK   93  A    between atoms: _260  and  _263
REMARK   94  A    between atoms: _263  and  _264
REMARK   95  A    between atoms: _267  and  _269
REMARK   96  A    between atoms: _269  and  _270
REMARK   97  A    between atoms: _269  and  _272
REMARK   98  A    between atoms: _272  and  _273
REMARK   99  A    between atoms: _275  and  _277
REMARK  100  A    between atoms: _277  and  _278
REMARK  101  A    between atoms: _277  and  _280
REMARK  102  A    between atoms: _280  and  _281
REMARK  103  A    between atoms: _284  and  _286
REMARK  104  A    between atoms: _286  and  _287
REMARK  105  A    between atoms: _286  and  _289
REMARK  106  A    between atoms: _289  and  _290
REMARK  107  A    between atoms: _293  and  _295
REMARK  108  A    between atoms: _295  and  _296
REMARK  109  A    between atoms: _295  and  _298
REMARK  110  A    between atoms: _298  and  _299
REMARK  111  A    between atoms: _303  and  _304
REMARK  112  A    between atoms: _310  and  _311
REMARK  113  A    between atoms: _316  and  _318
REMARK  114  A    between atoms: _318  and  _319
REMARK  115  A    between atoms: _318  and  _321
REMARK  116  A    between atoms: _321  and  _322
REMARK  117  A    between atoms: _325  and  _327
REMARK  118  A    between atoms: _327  and  _328
REMARK  119  A    between atoms: _327  and  _330
REMARK  120  A    between atoms: _330  and  _331
REMARK  121  A    between atoms: _334  and  _336
REMARK  122  A    between atoms: _336  and  _337
REMARK  123  A    between atoms: _336  and  _339
REMARK  124  A    between atoms: _342  and  _344
REMARK  125  A    between atoms: _344  and  _345
REMARK  126  A    between atoms: _344  and  _347
REMARK  127  A    between atoms: _347  and  _348
REMARK  128  A    between atoms: _358  and  _360
REMARK  129  A    between atoms: _360  and  _361
REMARK  130  A    between atoms: _360  and  _363
REMARK  131  A    between atoms: _363  and  _364
REMARK  132  A    between atoms: _369  and  _371
REMARK  133  A    between atoms: _371  and  _372
REMARK  134  A    between atoms: _371  and  _374
REMARK  135  A    between atoms: _374  and  _375
REMARK  136  A    between atoms: _375  and  _376
REMARK  137  A    between atoms: _376  and  _377
REMARK                            x       y       z     vdW  Elec       q    Type
REMARK                         _______ _______ _______ _____ _____    ______ ____
ROOT
ATOM      1  C   UNK A   4     -10.396  -1.365  10.327  0.00  0.00    +0.000 C 
ATOM      2  C   UNK A   4     -10.459  -2.655  11.120  0.00  0.00    +0.000 C 
ATOM      3  O   UNK A   4     -11.068  -2.711  12.189  0.00  0.00    +0.000 OA
ATOM      4  N   VAL A   5      -9.804  -3.685  10.602  0.00  0.00    +0.000 N 
ATOM      5  CA  VAL A   5      -9.781  -4.986  11.249  0.00  0.00    +0.000 C 
ATOM      6  C   VAL A   5      -8.337  -5.432  11.453  0.00  0.00    +0.000 C 
ATOM      7  N   UNK A   6      -8.198  -6.457  12.273  0.00  0.00    +0.000 N 
ATOM      8  H   UNK A   6      -9.052  -6.828  12.736  0.00  0.00    +0.000 HD
ATOM      9  C   UNK A   6      -6.933  -7.099  12.571  0.00  0.00    +0.000 C 
ATOM     10  C   UNK A   6      -6.440  -6.771  14.012  0.00  0.00    +0.000 C 
ATOM     11  C   UNK A   6      -6.202  -5.304  14.281  0.00  0.00    +0.000 A 
ATOM     12  C   UNK A   6      -7.063  -4.324  14.658  0.00  0.00    +0.000 A 
ATOM     13  N   UNK A   6      -6.368  -3.083  14.845  0.00  0.00    +0.000 N 
ATOM     14 ZN   UNK A   6      -7.010  -1.386  15.290  0.00  0.00    +0.000 Zn
ATOM     15  N   UNK A   4      -7.583  -0.641  13.803  0.00  0.00    +0.000 N 
ATOM     16  C   UNK A   4      -8.000   0.584  13.552  0.00  0.00    +0.000 A 
ATOM     17  N   UNK A   4      -8.505   0.676  12.316  0.00  0.00    +0.000 NA
ATOM     18  C   UNK A   4      -8.421  -0.561  11.720  0.00  0.00    +0.000 A 
ATOM     19  C   UNK A   4      -7.843  -1.372  12.642  0.00  0.00    +0.000 A 
ATOM     20  C   UNK A   6      -5.114  -3.393  14.561  0.00  0.00    +0.000 A 
ATOM     21  N   UNK A   6      -4.972  -4.699  14.223  0.00  0.00    +0.000 NA
ATOM     22  O   VAL A   5      -7.392  -4.866  10.903  0.00  0.00    +0.000 OA
ATOM     23  H   VAL A   5      -9.291  -3.558   9.706  0.00  0.00    +0.000 HD
ATOM     24  C   UNK A   4      -8.939  -0.865  10.347  0.00  0.00    +0.000 C 
ENDROOT
BRANCH  14  25
ATOM     25  N   UNK A   6      -8.311  -2.185  16.460  0.00  0.00    +0.000 N 
ATOM     26  C   UNK A   6      -7.990  -3.117  17.329  0.00  0.00    +0.000 A 
ATOM     27  N   UNK A   6      -9.060  -3.562  18.000  0.00  0.00    +0.000 NA
ATOM     28  C   UNK A   6     -10.140  -2.874  17.537  0.00  0.00    +0.000 A 
ATOM     29  C   UNK A   6      -9.672  -2.023  16.589  0.00  0.00    +0.000 A 
BRANCH  29  30
ATOM     30  C   UNK A   6     -10.418  -1.007  15.796  0.00  0.00    +0.000 C 
BRANCH  30  31
ATOM     31  C   UNK A   6     -11.917  -1.300  15.666  0.00  0.00    +0.000 C 
BRANCH  31  32
ATOM     32  C   UNK A   6     -12.555  -0.108  15.013  0.00  0.00    +0.000 C 
ATOM     33  N   UNK A   4     -13.540   0.472  15.701  0.00  0.00    +0.000 N 
ATOM     34  H   UNK A   4     -13.820   0.057  16.613  0.00  0.00    +0.000 HD
ATOM     35  O   UNK A   6     -12.180   0.257  13.887  0.00  0.00    +0.000 OA
BRANCH  33  36
ATOM     36  C   UNK A   4     -14.243   1.664  15.231  0.00  0.00    +0.000 C 
BRANCH  36  37
ATOM     37  C   UNK A   4     -13.599   2.805  16.003  0.00  0.00    +0.000 C 
ATOM     38  O   UNK A   4     -13.760   2.927  17.226  0.00  0.00    +0.000 OA
ATOM     39  N   VAL A   5     -12.838   3.620  15.283  0.00  0.00    +0.000 N 
ATOM     40  H   VAL A   5     -12.785   3.468  14.256  0.00  0.00    +0.000 HD
BRANCH  39  41
ATOM     41  CA  VAL A   5     -12.072   4.719  15.863  0.00  0.00    +0.000 C 
BRANCH  41  42
ATOM     42  C   VAL A   5     -12.786   6.058  15.920  0.00  0.00    +0.000 C 
ATOM     43  N   UNK A   6     -12.838   6.663  17.121  0.00  0.00    +0.000 N 
ATOM     44  H   UNK A   6     -12.393   6.189  17.933  0.00  0.00    +0.000 HD
ATOM     45  O   VAL A   5     -13.271   6.536  14.883  0.00  0.00    +0.000 OA
BRANCH  43  46
ATOM     46  C   UNK A   6     -13.497   7.968  17.343  0.00  0.00    +0.000 C 
BRANCH  46  47
ATOM     47  C   UNK A   6     -12.584   8.923  18.098  0.00  0.00    +0.000 C 
ATOM     48  O   UNK A   6     -11.780   8.489  18.913  0.00  0.00    +0.000 OA
ENDBRANCH  46  47
BRANCH  46  49
ATOM     49  C   UNK A   6     -14.737   7.838  18.223  0.00  0.00    +0.000 C 
BRANCH  49  50
ATOM     50  C   UNK A   6     -15.662   6.731  17.846  0.00  0.00    +0.000 A 
ATOM     51  N   UNK A   6     -15.319   5.402  17.966  0.00  0.00    +0.000 NA
ATOM     52  C   UNK A   6     -16.344   4.654  17.595  0.00  0.00    +0.000 A 
ATOM     53  N   UNK A   6     -17.338   5.451  17.241  0.00  0.00    +0.000 NA
ATOM     54  C   UNK A   6     -16.937   6.754  17.390  0.00  0.00    +0.000 A 
ENDBRANCH  49  50
ENDBRANCH  46  49
ENDBRANCH  43  46
ENDBRANCH  41  42
BRANCH  41  55
ATOM     55  CB  VAL A   5     -10.726   4.867  15.085  0.00  0.00    +0.000 C 
ATOM     56  CG2 VAL A   5      -9.789   5.840  15.786  0.00  0.00    +0.000 C 
ATOM     57  CG1 VAL A   5     -10.060   3.500  14.935  0.00  0.00    +0.000 C 
ENDBRANCH  41  55
ENDBRANCH  39  41
ENDBRANCH  36  37
BRANCH  36  58
ATOM     58  C   UNK A   4     -15.757   1.544  15.489  0.00  0.00    +0.000 C 
BRANCH  58  59
ATOM     59  C   UNK A   4     -16.437   0.457  14.635  0.00  0.00    +0.000 C 
ATOM     60  C   UNK A   4     -17.212  -0.492  15.458  0.00  0.00    +0.000 C 
ATOM     61  C   UNK A   4     -17.346   1.090  13.600  0.00  0.00    +0.000 C 
ENDBRANCH  58  59
ENDBRANCH  36  58
ENDBRANCH  33  36
ENDBRANCH  31  32
BRANCH  31  62
ATOM     62  N   UNK A   6     -12.157  -2.495  14.871  0.00  0.00    +0.000 N 
ATOM     63  C   LEU A   2     -12.833  -3.542  15.336  0.00  0.00    +0.000 C 
ATOM     64  O   LEU A   2     -13.325  -3.583  16.461  0.00  0.00    +0.000 OA
ATOM     65  H   UNK A   6     -11.785  -2.532  13.900  0.00  0.00    +0.000 HD
BRANCH  63  66
ATOM     66  CA  LEU A   2     -13.019  -4.713  14.384  0.00  0.00    +0.000 C 
BRANCH  66  67
ATOM     67  N   LEU A   2     -12.664  -5.952  15.048  0.00  0.00    +0.000 N 
ATOM     68  H   LEU A   2     -13.359  -6.390  15.686  0.00  0.00    +0.000 HD
ATOM     69  C   GLU A   1     -11.495  -6.551  14.879  0.00  0.00    +0.000 C 
ATOM     70  O   GLU A   1     -10.620  -6.126  14.113  0.00  0.00    +0.000 OA
BRANCH  69  71
ATOM     71  CA  GLU A   1     -11.311  -7.849  15.663  0.00  0.00    +0.000 C 
BRANCH  71  72
ATOM     72  N   GLU A   1     -10.767  -8.894  14.800  0.00  0.00    +0.000 NA
ATOM     73  H   GLU A   1     -10.122  -8.624  14.030  0.00  0.00    +0.000 HD
ENDBRANCH  71  72
BRANCH  71  74
ATOM     74  CB  GLU A   1     -10.406  -7.641  16.894  0.00  0.00    +0.000 C 
BRANCH  74  75
ATOM     75  CG  GLU A   1     -10.936  -6.730  18.010  0.00  0.00    +0.000 C 
BRANCH  75  76
ATOM     76  CD  GLU A   1      -9.944  -6.620  19.181  0.00  0.00    +0.000 C 
ATOM     77  OE2 GLU A   1      -9.801  -5.527  19.749  0.00  0.00    +0.000 OA
ATOM     78  OE1 GLU A   1      -9.317  -7.639  19.541  0.00  0.00    +0.000 OA
ENDBRANCH  75  76
ENDBRANCH  74  75
ENDBRANCH  71  74
ENDBRANCH  69  71
ENDBRANCH  66  67
BRANCH  66  79
ATOM     79  CB  LEU A   2     -14.487  -4.784  13.960  0.00  0.00    +0.000 C 
BRANCH  79  80
ATOM     80  CG  LEU A   2     -15.219  -3.496  13.581  0.00  0.00    +0.000 C 
ATOM     81  CD2 LEU A   2     -16.710  -3.817  13.427  0.00  0.00    +0.000 C 
ATOM     82  CD1 LEU A   2     -14.645  -2.900  12.291  0.00  0.00    +0.000 C 
ENDBRANCH  79  80
ENDBRANCH  66  79
ENDBRANCH  63  66
ENDBRANCH  31  62
ENDBRANCH  30  31
ENDBRANCH  29  30
ENDBRANCH  14  25
BRANCH   1  84
ATOM     83  C   UNK A   3     -11.901   0.608  10.291  0.00  0.00    +0.000 C 
ATOM     84  N   UNK A   4     -11.321  -0.407  10.939  0.00  0.00    +0.000 N 
ATOM     85  H   UNK A   4     -11.542  -0.525  11.948  0.00  0.00    +0.000 HD
ATOM     86  O   UNK A   3     -11.628   0.916   9.127  0.00  0.00    +0.000 OA
BRANCH  83  87
ATOM     87  C   UNK A   3     -12.854   1.495  11.108  0.00  0.00    +0.000 C 
BRANCH  87  90
ATOM     88  C   LEU A   2     -12.703   3.932  11.265  0.00  0.00    +0.000 C 
ATOM     89  O   LEU A   2     -12.770   3.922  12.491  0.00  0.00    +0.000 OA
ATOM     90  N   UNK A   3     -12.831   2.830  10.520  0.00  0.00    +0.000 N 
ATOM     91  H   UNK A   3     -12.917   2.927   9.488  0.00  0.00    +0.000 HD
BRANCH  88  92
ATOM     92  CA  LEU A   2     -12.578   5.258  10.509  0.00  0.00    +0.000 C 
BRANCH  92  94
ATOM     93  C   GLU A   1     -12.930   7.670  10.792  0.00  0.00    +0.000 C 
ATOM     94  N   LEU A   2     -12.853   6.448  11.323  0.00  0.00    +0.000 N 
ATOM     95  H   LEU A   2     -12.992   6.335  12.347  0.00  0.00    +0.000 HD
ATOM     96  O   GLU A   1     -12.810   7.872   9.583  0.00  0.00    +0.000 OA
BRANCH  93  97
ATOM     97  CA  GLU A   1     -13.257   8.838  11.744  0.00  0.00    +0.000 C 
BRANCH  97  98
ATOM     98  CB  GLU A   1     -11.984   9.533  12.301  0.00  0.00    +0.000 C 
ATOM     99  CG2 GLU A   1     -11.260   8.644  13.306  0.00  0.00    +0.000 C 
BRANCH  98 100
ATOM    100  CG1 GLU A   1     -11.051   9.935  11.161  0.00  0.00    +0.000 C 
ATOM    101  CD1 GLU A   1      -9.999  10.939  11.595  0.00  0.00    +0.000 C 
ENDBRANCH  98 100
ENDBRANCH  97  98
BRANCH  97 102
ATOM    102  N   GLU A   1     -14.127   8.396  12.816  0.00  0.00    +0.000 NA
ATOM    103  H   GLU A   1     -13.784   7.686  13.494  0.00  0.00    +0.000 HD
ENDBRANCH  97 102
ENDBRANCH  93  97
ENDBRANCH  92  94
BRANCH  92 104
ATOM    104  CB  LEU A   2     -11.177   5.340   9.874  0.00  0.00    +0.000 C 
BRANCH 104 105
ATOM    105  CG  LEU A   2      -9.995   5.492  10.857  0.00  0.00    +0.000 C 
BRANCH 105 106
ATOM    106  CD  LEU A   2      -9.223   4.191  11.104  0.00  0.00    +0.000 C 
ATOM    107  NE2 LEU A   2      -7.921   4.317  11.347  0.00  0.00    +0.000 N 
ATOM    108 HE21 LEU A   2      -7.342   3.473  11.532  0.00  0.00    +0.000 HD
ATOM    109 HE22 LEU A   2      -7.482   5.260  11.352  0.00  0.00    +0.000 HD
ATOM    110  OE1 LEU A   2      -9.787   3.093  11.088  0.00  0.00    +0.000 OA
ENDBRANCH 105 106
ENDBRANCH 104 105
ENDBRANCH  92 104
ENDBRANCH  88  92
ENDBRANCH  87  90
BRANCH  87 111
ATOM    111  C   UNK A   3     -14.277   0.901  11.281  0.00  0.00    +0.000 C 
BRANCH 111 112
ATOM    112  C   UNK A   3     -14.975   0.477  10.001  0.00  0.00    +0.000 A 
ATOM    113  C   UNK A   3     -16.012   1.240   9.478  0.00  0.00    +0.000 A 
ATOM    114  C   UNK A   3     -16.739   0.803   8.358  0.00  0.00    +0.000 A 
ATOM    115  C   UNK A   3     -16.422  -0.409   7.755  0.00  0.00    +0.000 A 
ATOM    116  C   UNK A   3     -15.385  -1.180   8.261  0.00  0.00    +0.000 A 
ATOM    117  C   UNK A   3     -14.667  -0.735   9.381  0.00  0.00    +0.000 A 
ENDBRANCH 111 112
ENDBRANCH  87 111
ENDBRANCH  83  87
ENDBRANCH   1  84
BRANCH   9 118
ATOM    118  C   UNK A   6      -7.404  -8.562  12.457  0.00  0.00    +0.000 C 
ATOM    119  O   UNK A   6      -8.484  -8.914  12.970  0.00  0.00    +0.000 OA
ENDBRANCH   9 118
BRANCH   5 120
ATOM    120  CB  VAL A   5     -10.481  -6.056  10.376  0.00  0.00    +0.000 C 
BRANCH 120 121
ATOM    121  CG  VAL A   5     -11.924  -5.745  10.021  0.00  0.00    +0.000 A 
ATOM    122  CD2 VAL A   5     -12.967  -6.455  10.615  0.00  0.00    +0.000 A 
ATOM    123  CE2 VAL A   5     -14.291  -6.217  10.252  0.00  0.00    +0.000 A 
ATOM    124  CZ  VAL A   5     -14.596  -5.263   9.290  0.00  0.00    +0.000 A 
ATOM    125  CE1 VAL A   5     -13.574  -4.543   8.691  0.00  0.00    +0.000 A 
ATOM    126  CD1 VAL A   5     -12.239  -4.787   9.059  0.00  0.00    +0.000 A 
ENDBRANCH 120 121
ENDBRANCH   5 120
TORSDOF 42
REMARK  Name = ../refined-set-2016/1g4o/1g4o_pocket.pdb
REMARK  137 active torsions:
REMARK  status: ('A' for Active; 'I' for Inactive)
REMARK    1  A    between atoms: _1  and  _3
REMARK    2  A    between atoms: _3  and  _4
REMARK    3  A    between atoms: _3  and  _6
REMARK    4  A    between atoms: _6  and  _7
REMARK    5  A    between atoms: _17  and  _19
REMARK    6  A    between atoms: _19  and  _20
REMARK    7  A    between atoms: _19  and  _22
REMARK    8  A    between atoms: _22  and  _23
REMARK    9  A    between atoms: _28  and  _29
REMARK   10  A    between atoms: _31  and  _33
REMARK   11  A    between atoms: _33  and  _34
REMARK   12  A    between atoms: _33  and  _36
REMARK   13  A    between atoms: _36  and  _37
REMARK   14  A    between atoms: _40  and  _41
REMARK   15  A    between atoms: _46  and  _48
REMARK   16  A    between atoms: _48  and  _49
REMARK   17  A    between atoms: _48  and  _51
REMARK   18  A    between atoms: _51  and  _52
REMARK   19  A    between atoms: _57  and  _59
REMARK   20  A    between atoms: _59  and  _60
REMARK   21  A    between atoms: _59  and  _62
REMARK   22  A    between atoms: _62  and  _63
REMARK   23  A    between atoms: _68  and  _70
REMARK   24  A    between atoms: _70  and  _71
REMARK   25  A    between atoms: _70  and  _73
REMARK   26  A    between atoms: _73  and  _74
REMARK   27  A    between atoms: _77  and  _79
REMARK   28  A    between atoms: _79  and  _80
REMARK   29  A    between atoms: _79  and  _82
REMARK   30  A    between atoms: _82  and  _83
REMARK   31  A    between atoms: _83  and  _84
REMARK   32  A    between atoms: _89  and  _91
REMARK   33  A    between atoms: _91  and  _92
REMARK   34  A    between atoms: _91  and  _94
REMARK   35  A    between atoms: _94  and  _95
REMARK   36  A    between atoms: _101  and  _103
REMARK   37  A    between atoms: _114  and  _117
REMARK   38  A    between atoms: _117  and  _118
REMARK   39  A    between atoms: _126  and  _127
REMARK   40  A    between atoms: _135  and  _137
REMARK   41  A    between atoms: _137  and  _138
REMARK   42  A    between atoms: _137  and  _140
REMARK   43  A    between atoms: _140  and  _141
REMARK   44  A    between atoms: _141  and  _142
REMARK   45  A    between atoms: _145  and  _147
REMARK   46  A    between atoms: _147  and  _148
REMARK   47  A    between atoms: _147  and  _150
REMARK   48  A    between atoms: _150  and  _151
REMARK   49  A    between atoms: _156  and  _158
REMARK   50  A    between atoms: _158  and  _159
REMARK   51  A    between atoms: _158  and  _161
REMARK   52  A    between atoms: _161  and  _162
REMARK   53  A    between atoms: _162  and  _163
REMARK   54  A    between atoms: _166  and  _168
REMARK   55  A    between atoms: _168  and  _169
REMARK   56  A    between atoms: _168  and  _171
REMARK   57  A    between atoms: _171  and  _172
REMARK   58  A    between atoms: _175  and  _177
REMARK   59  A    between atoms: _177  and  _178
REMARK   60  A    between atoms: _177  and  _180
REMARK   61  A    between atoms: _180  and  _181
REMARK   62  A    between atoms: _182  and  ZN_386
REMARK   63  A    between atoms: _186  and  _188
REMARK   64  A    between atoms: _188  and  _189
REMARK   65  A    between atoms: _188  and  _191
REMARK   66  A    between atoms: _191  and  _192
REMARK   67  A    between atoms: _195  and  _197
REMARK   68  A    between atoms: _197  and  _198
REMARK   69  A    between atoms: _197  and  _200
REMARK   70  A    between atoms: _203  and  _205
REMARK   71  A    between atoms: _205  and  _206
REMARK   72  A    between atoms: _205  and  _208
REMARK   73  A    between atoms: _208  and  _209
REMARK   74  A    between atoms: _214  and  _216
REMARK   75  A    between atoms: _216  and  _217
REMARK   76  A    between atoms: _216  and  _219
REMARK   77  A    between atoms: _222  and  _224
REMARK   78  A    between atoms: _224  and  _225
REMARK   79  A    between atoms: _227  and  _229
REMARK   80  A    between atoms: _229  and  _230
REMARK   81  A    between atoms: _229  and  _232
REMARK   82  A    between atoms: _235  and  _237
REMARK   83  A    between atoms: _237  and  _238
REMARK   84  A    between atoms: _237  and  _240
REMARK   85  A    between atoms: _240  and  _241
REMARK   86  A    between atoms: _244  and  _246
REMARK   87  A    between atoms: _246  and  _247
REMARK   88  A    between atoms: _250  and  _252
REMARK   89  A    between atoms: _252  and  _253
REMARK   90  A    between atoms: _252  and  _255
REMARK   91  A    between atoms: _258  and  _260
REMARK   92  A    between atoms: _260  and  _261
REMARK   93  A    between atoms: _260  and  _263
REMARK   94  A    between atoms: _263  and  _264
REMARK   95  A    between atoms: _267  and  _269
REMARK   96  A    between atoms: _269  and  _270
REMARK   97  A    between atoms: _269  and  _272
REMARK   98  A    between atoms: _272  and  _273
REMARK   99  A    between atoms: _275  and  _277
REMARK  100  A    between atoms: _277  and  _278
REMARK  101  A    between atoms: _277  and  _280
REMARK  102  A    between atoms: _280  and  _281
REMARK  103  A    between atoms: _284  and  _286
REMARK  104  A    between atoms: _286  and  _287
REMARK  105  A    between atoms: _286  and  _289
REMARK  106  A    between atoms: _289  and  _290
REMARK  107  A    between atoms: _293  and  _295
REMARK  108  A    between atoms: _295  and  _296
REMARK  109  A    between atoms: _295  and  _298
REMARK  110  A    between atoms: _298  and  _299
REMARK  111  A    between atoms: _303  and  _304
REMARK  112  A    between atoms: _310  and  _311
REMARK  113  A    between atoms: _316  and  _318
REMARK  114  A    between atoms: _318  and  _319
REMARK  115  A    between atoms: _318  and  _321
REMARK  116  A    between atoms: _321  and  _322
REMARK  117  A    between atoms: _325  and  _327
REMARK  118  A    between atoms: _327  and  _328
REMARK  119  A    between atoms: _327  and  _330
REMARK  120  A    between atoms: _330  and  _331
REMARK  121  A    between atoms: _334  and  _336
REMARK  122  A    between atoms: _336  and  _337
REMARK  123  A    between atoms: _336  and  _339
REMARK  124  A    between atoms: _342  and  _344
REMARK  125  A    between atoms: _344  and  _345
REMARK  126  A    between atoms: _344  and  _347
REMARK  127  A    between atoms: _347  and  _348
REMARK  128  A    between atoms: _358  and  _360
REMARK  129  A    between atoms: _360  and  _361
REMARK  130  A    between atoms: _360  and  _363
REMARK  131  A    between atoms: _363  and  _364
REMARK  132  A    between atoms: _369  and  _371
REMARK  133  A    between atoms: _371  and  _372
REMARK  134  A    between atoms: _371  and  _374
REMARK  135  A    between atoms: _374  and  _375
REMARK  136  A    between atoms: _375  and  _376
REMARK  137  A    between atoms: _376  and  _377
REMARK                            x       y       z     vdW  Elec       q    Type
REMARK                         _______ _______ _______ _____ _____    ______ ____
ROOT
ATOM      1  C   GLU A   1      -6.088  -8.572  21.122  0.00  0.00    +0.238 C 
ATOM      2  O   GLU A   1      -5.263  -9.113  21.851  0.00  0.00    -0.274 OA
ATOM      3  N   HIS A   2      -7.281  -8.176  21.571  0.00  0.00    -0.298 N 
ATOM      4  H   HIS A   2      -7.929  -7.680  20.926  0.00  0.00    +0.150 HD
ENDROOT
BRANCH   1   5
ATOM      5  CA  GLU A   1      -5.780  -8.317  19.631  0.00  0.00    +0.145 C 
BRANCH   5   6
ATOM      6  N   GLU A   1      -6.813  -8.951  18.822  0.00  0.00    -0.238 NA
ATOM      7  H   GLU A   1      -7.653  -8.392  18.570  0.00  0.00    +0.142 HD
ENDBRANCH   5   6
BRANCH   5   8
ATOM      8  CB  GLU A   1      -5.716  -6.817  19.293  0.00  0.00    +0.038 C 
BRANCH   8   9
ATOM      9  CG  GLU A   1      -5.343  -6.541  17.805  0.00  0.00    +0.116 C 
BRANCH   9  10
ATOM     10  CD  GLU A   1      -4.608  -5.233  17.604  0.00  0.00    +0.365 C 
ATOM     11  OE2 GLU A   1      -5.227  -4.157  17.702  0.00  0.00    -0.246 OA
ATOM     12  OE1 GLU A   1      -3.390  -5.280  17.354  0.00  0.00    -0.246 OA
ENDBRANCH   9  10
ENDBRANCH   8   9
ENDBRANCH   5   8
ENDBRANCH   1   5
BRANCH   3  13
ATOM     13  CA  HIS A   2      -7.696  -8.425  22.953  0.00  0.00    +0.143 C 
BRANCH  13  14
ATOM     14  C   HIS A   2      -8.096  -9.886  22.982  0.00  0.00    +0.227 C 
ATOM     15  O   HIS A   2      -8.458 -10.433  21.953  0.00  0.00    -0.286 OA
ENDBRANCH  13  14
BRANCH  13  16
ATOM     16  CB  HIS A   2      -8.905  -7.560  23.331  0.00  0.00    +0.075 C 
BRANCH  16  17
ATOM     17  CG  HIS A   2      -8.575  -6.114  23.511  0.00  0.00    +0.082 A 
ATOM     18  CD2 HIS A   2      -8.139  -5.432  24.597  0.00  0.00    +0.115 A 
ATOM     19  NE2 HIS A   2      -7.907  -4.140  24.196  0.00  0.00    -0.221 NA
ATOM     20  CE1 HIS A   2      -8.196  -4.028  22.912  0.00  0.00    +0.199 A 
ATOM     21  ND1 HIS A   2      -8.606  -5.206  22.475  0.00  0.00    -0.227 NA
ENDBRANCH  16  17
ENDBRANCH  13  16
ENDBRANCH   3  13
TORSDOF 9
REMARK  Name = ../refined-set-2016/1g4o/1g4o_pocket.pdb
REMARK  137 active torsions:
REMARK  status: ('A' for Active; 'I' for Inactive)
REMARK    1  A    between atoms: _1  and  _3
REMARK    2  A    between atoms: _3  and  _4
REMARK    3  A    between atoms: _3  and  _6
REMARK    4  A    between atoms: _6  and  _7
REMARK    5  A    between atoms: _17  and  _19
REMARK    6  A    between atoms: _19  and  _20
REMARK    7  A    between atoms: _19  and  _22
REMARK    8  A    between atoms: _22  and  _23
REMARK    9  A    between atoms: _28  and  _29
REMARK   10  A    between atoms: _31  and  _33
REMARK   11  A    between atoms: _33  and  _34
REMARK   12  A    between atoms: _33  and  _36
REMARK   13  A    between atoms: _36  and  _37
REMARK   14  A    between atoms: _40  and  _41
REMARK   15  A    between atoms: _46  and  _48
REMARK   16  A    between atoms: _48  and  _49
REMARK   17  A    between atoms: _48  and  _51
REMARK   18  A    between atoms: _51  and  _52
REMARK   19  A    between atoms: _57  and  _59
REMARK   20  A    between atoms: _59  and  _60
REMARK   21  A    between atoms: _59  and  _62
REMARK   22  A    between atoms: _62  and  _63
REMARK   23  A    between atoms: _68  and  _70
REMARK   24  A    between atoms: _70  and  _71
REMARK   25  A    between atoms: _70  and  _73
REMARK   26  A    between atoms: _73  and  _74
REMARK   27  A    between atoms: _77  and  _79
REMARK   28  A    between atoms: _79  and  _80
REMARK   29  A    between atoms: _79  and  _82
REMARK   30  A    between atoms: _82  and  _83
REMARK   31  A    between atoms: _83  and  _84
REMARK   32  A    between atoms: _89  and  _91
REMARK   33  A    between atoms: _91  and  _92
REMARK   34  A    between atoms: _91  and  _94
REMARK   35  A    between atoms: _94  and  _95
REMARK   36  A    between atoms: _101  and  _103
REMARK   37  A    between atoms: _114  and  _117
REMARK   38  A    between atoms: _117  and  _118
REMARK   39  A    between atoms: _126  and  _127
REMARK   40  A    between atoms: _135  and  _137
REMARK   41  A    between atoms: _137  and  _138
REMARK   42  A    between atoms: _137  and  _140
REMARK   43  A    between atoms: _140  and  _141
REMARK   44  A    between atoms: _141  and  _142
REMARK   45  A    between atoms: _145  and  _147
REMARK   46  A    between atoms: _147  and  _148
REMARK   47  A    between atoms: _147  and  _150
REMARK   48  A    between atoms: _150  and  _151
REMARK   49  A    between atoms: _156  and  _158
REMARK   50  A    between atoms: _158  and  _159
REMARK   51  A    between atoms: _158  and  _161
REMARK   52  A    between atoms: _161  and  _162
REMARK   53  A    between atoms: _162  and  _163
REMARK   54  A    between atoms: _166  and  _168
REMARK   55  A    between atoms: _168  and  _169
REMARK   56  A    between atoms: _168  and  _171
REMARK   57  A    between atoms: _171  and  _172
REMARK   58  A    between atoms: _175  and  _177
REMARK   59  A    between atoms: _177  and  _178
REMARK   60  A    between atoms: _177  and  _180
REMARK   61  A    between atoms: _180  and  _181
REMARK   62  A    between atoms: _182  and  ZN_386
REMARK   63  A    between atoms: _186  and  _188
REMARK   64  A    between atoms: _188  and  _189
REMARK   65  A    between atoms: _188  and  _191
REMARK   66  A    between atoms: _191  and  _192
REMARK   67  A    between atoms: _195  and  _197
REMARK   68  A    between atoms: _197  and  _198
REMARK   69  A    between atoms: _197  and  _200
REMARK   70  A    between atoms: _203  and  _205
REMARK   71  A    between atoms: _205  and  _206
REMARK   72  A    between atoms: _205  and  _208
REMARK   73  A    between atoms: _208  and  _209
REMARK   74  A    between atoms: _214  and  _216
REMARK   75  A    between atoms: _216  and  _217
REMARK   76  A    between atoms: _216  and  _219
REMARK   77  A    between atoms: _222  and  _224
REMARK   78  A    between atoms: _224  and  _225
REMARK   79  A    between atoms: _227  and  _229
REMARK   80  A    between atoms: _229  and  _230
REMARK   81  A    between atoms: _229  and  _232
REMARK   82  A    between atoms: _235  and  _237
REMARK   83  A    between atoms: _237  and  _238
REMARK   84  A    between atoms: _237  and  _240
REMARK   85  A    between atoms: _240  and  _241
REMARK   86  A    between atoms: _244  and  _246
REMARK   87  A    between atoms: _246  and  _247
REMARK   88  A    between atoms: _250  and  _252
REMARK   89  A    between atoms: _252  and  _253
REMARK   90  A    between atoms: _252  and  _255
REMARK   91  A    between atoms: _258  and  _260
REMARK   92  A    between atoms: _260  and  _261
REMARK   93  A    between atoms: _260  and  _263
REMARK   94  A    between atoms: _263  and  _264
REMARK   95  A    between atoms: _267  and  _269
REMARK   96  A    between atoms: _269  and  _270
REMARK   97  A    between atoms: _269  and  _272
REMARK   98  A    between atoms: _272  and  _273
REMARK   99  A    between atoms: _275  and  _277
REMARK  100  A    between atoms: _277  and  _278
REMARK  101  A    between atoms: _277  and  _280
REMARK  102  A    between atoms: _280  and  _281
REMARK  103  A    between atoms: _284  and  _286
REMARK  104  A    between atoms: _286  and  _287
REMARK  105  A    between atoms: _286  and  _289
REMARK  106  A    between atoms: _289  and  _290
REMARK  107  A    between atoms: _293  and  _295
REMARK  108  A    between atoms: _295  and  _296
REMARK  109  A    between atoms: _295  and  _298
REMARK  110  A    between atoms: _298  and  _299
REMARK  111  A    between atoms: _303  and  _304
REMARK  112  A    between atoms: _310  and  _311
REMARK  113  A    between atoms: _316  and  _318
REMARK  114  A    between atoms: _318  and  _319
REMARK  115  A    between atoms: _318  and  _321
REMARK  116  A    between atoms: _321  and  _322
REMARK  117  A    between atoms: _325  and  _327
REMARK  118  A    between atoms: _327  and  _328
REMARK  119  A    between atoms: _327  and  _330
REMARK  120  A    between atoms: _330  and  _331
REMARK  121  A    between atoms: _334  and  _336
REMARK  122  A    between atoms: _336  and  _337
REMARK  123  A    between atoms: _336  and  _339
REMARK  124  A    between atoms: _342  and  _344
REMARK  125  A    between atoms: _344  and  _345
REMARK  126  A    between atoms: _344  and  _347
REMARK  127  A    between atoms: _347  and  _348
REMARK  128  A    between atoms: _358  and  _360
REMARK  129  A    between atoms: _360  and  _361
REMARK  130  A    between atoms: _360  and  _363
REMARK  131  A    between atoms: _363  and  _364
REMARK  132  A    between atoms: _369  and  _371
REMARK  133  A    between atoms: _371  and  _372
REMARK  134  A    between atoms: _371  and  _374
REMARK  135  A    between atoms: _374  and  _375
REMARK  136  A    between atoms: _375  and  _376
REMARK  137  A    between atoms: _376  and  _377
REMARK                            x       y       z     vdW  Elec       q    Type
REMARK                         _______ _______ _______ _____ _____    ______ ____
ROOT
ATOM      1  C   VAL A   1      -6.257  14.594  16.007  0.00  0.00    +0.238 C 
ATOM      2  O   VAL A   1      -5.784  13.911  16.921  0.00  0.00    -0.274 OA
ATOM      3  N   GLY A   2      -5.574  15.534  15.370  0.00  0.00    -0.297 N 
ATOM      4  H   GLY A   2      -6.038  16.094  14.627  0.00  0.00    +0.150 HD
ENDROOT
BRANCH   1   5
ATOM      5  CA  VAL A   1      -7.697  14.435  15.589  0.00  0.00    +0.145 C 
BRANCH   5   6
ATOM      6  CB  VAL A   1      -7.841  13.281  14.570  0.00  0.00    +0.025 C 
ATOM      7  CG2 VAL A   1      -7.638  11.952  15.249  0.00  0.00    +0.002 C 
ATOM      8  CG1 VAL A   1      -9.201  13.333  13.905  0.00  0.00    +0.002 C 
ENDBRANCH   5   6
BRANCH   5   9
ATOM      9  N   VAL A   1      -8.289  15.684  15.105  0.00  0.00    -0.238 NA
ATOM     10  H   VAL A   1      -8.594  15.750  14.113  0.00  0.00    +0.142 HD
ENDBRANCH   5   9
ENDBRANCH   1   5
BRANCH   3  11
ATOM     11  CA  GLY A   2      -4.182  15.789  15.700  0.00  0.00    +0.163 C 
BRANCH  11  12
ATOM     12  C   GLY A   2      -4.019  16.287  17.129  0.00  0.00    +0.229 C 
ATOM     13  O   GLY A   2      -3.046  15.964  17.785  0.00  0.00    -0.286 OA
ENDBRANCH  11  12
ENDBRANCH   3  11
TORSDOF 5
REMARK  Name = ../refined-set-2016/1g4o/1g4o_pocket.pdb
REMARK  137 active torsions:
REMARK  status: ('A' for Active; 'I' for Inactive)
REMARK    1  A    between atoms: _1  and  _3
REMARK    2  A    between atoms: _3  and  _4
REMARK    3  A    between atoms: _3  and  _6
REMARK    4  A    between atoms: _6  and  _7
REMARK    5  A    between atoms: _17  and  _19
REMARK    6  A    between atoms: _19  and  _20
REMARK    7  A    between atoms: _19  and  _22
REMARK    8  A    between atoms: _22  and  _23
REMARK    9  A    between atoms: _28  and  _29
REMARK   10  A    between atoms: _31  and  _33
REMARK   11  A    between atoms: _33  and  _34
REMARK   12  A    between atoms: _33  and  _36
REMARK   13  A    between atoms: _36  and  _37
REMARK   14  A    between atoms: _40  and  _41
REMARK   15  A    between atoms: _46  and  _48
REMARK   16  A    between atoms: _48  and  _49
REMARK   17  A    between atoms: _48  and  _51
REMARK   18  A    between atoms: _51  and  _52
REMARK   19  A    between atoms: _57  and  _59
REMARK   20  A    between atoms: _59  and  _60
REMARK   21  A    between atoms: _59  and  _62
REMARK   22  A    between atoms: _62  and  _63
REMARK   23  A    between atoms: _68  and  _70
REMARK   24  A    between atoms: _70  and  _71
REMARK   25  A    between atoms: _70  and  _73
REMARK   26  A    between atoms: _73  and  _74
REMARK   27  A    between atoms: _77  and  _79
REMARK   28  A    between atoms: _79  and  _80
REMARK   29  A    between atoms: _79  and  _82
REMARK   30  A    between atoms: _82  and  _83
REMARK   31  A    between atoms: _83  and  _84
REMARK   32  A    between atoms: _89  and  _91
REMARK   33  A    between atoms: _91  and  _92
REMARK   34  A    between atoms: _91  and  _94
REMARK   35  A    between atoms: _94  and  _95
REMARK   36  A    between atoms: _101  and  _103
REMARK   37  A    between atoms: _114  and  _117
REMARK   38  A    between atoms: _117  and  _118
REMARK   39  A    between atoms: _126  and  _127
REMARK   40  A    between atoms: _135  and  _137
REMARK   41  A    between atoms: _137  and  _138
REMARK   42  A    between atoms: _137  and  _140
REMARK   43  A    between atoms: _140  and  _141
REMARK   44  A    between atoms: _141  and  _142
REMARK   45  A    between atoms: _145  and  _147
REMARK   46  A    between atoms: _147  and  _148
REMARK   47  A    between atoms: _147  and  _150
REMARK   48  A    between atoms: _150  and  _151
REMARK   49  A    between atoms: _156  and  _158
REMARK   50  A    between atoms: _158  and  _159
REMARK   51  A    between atoms: _158  and  _161
REMARK   52  A    between atoms: _161  and  _162
REMARK   53  A    between atoms: _162  and  _163
REMARK   54  A    between atoms: _166  and  _168
REMARK   55  A    between atoms: _168  and  _169
REMARK   56  A    between atoms: _168  and  _171
REMARK   57  A    between atoms: _171  and  _172
REMARK   58  A    between atoms: _175  and  _177
REMARK   59  A    between atoms: _177  and  _178
REMARK   60  A    between atoms: _177  and  _180
REMARK   61  A    between atoms: _180  and  _181
REMARK   62  A    between atoms: _182  and  ZN_386
REMARK   63  A    between atoms: _186  and  _188
REMARK   64  A    between atoms: _188  and  _189
REMARK   65  A    between atoms: _188  and  _191
REMARK   66  A    between atoms: _191  and  _192
REMARK   67  A    between atoms: _195  and  _197
REMARK   68  A    between atoms: _197  and  _198
REMARK   69  A    between atoms: _197  and  _200
REMARK   70  A    between atoms: _203  and  _205
REMARK   71  A    between atoms: _205  and  _206
REMARK   72  A    between atoms: _205  and  _208
REMARK   73  A    between atoms: _208  and  _209
REMARK   74  A    between atoms: _214  and  _216
REMARK   75  A    between atoms: _216  and  _217
REMARK   76  A    between atoms: _216  and  _219
REMARK   77  A    between atoms: _222  and  _224
REMARK   78  A    between atoms: _224  and  _225
REMARK   79  A    between atoms: _227  and  _229
REMARK   80  A    between atoms: _229  and  _230
REMARK   81  A    between atoms: _229  and  _232
REMARK   82  A    between atoms: _235  and  _237
REMARK   83  A    between atoms: _237  and  _238
REMARK   84  A    between atoms: _237  and  _240
REMARK   85  A    between atoms: _240  and  _241
REMARK   86  A    between atoms: _244  and  _246
REMARK   87  A    between atoms: _246  and  _247
REMARK   88  A    between atoms: _250  and  _252
REMARK   89  A    between atoms: _252  and  _253
REMARK   90  A    between atoms: _252  and  _255
REMARK   91  A    between atoms: _258  and  _260
REMARK   92  A    between atoms: _260  and  _261
REMARK   93  A    between atoms: _260  and  _263
REMARK   94  A    between atoms: _263  and  _264
REMARK   95  A    between atoms: _267  and  _269
REMARK   96  A    between atoms: _269  and  _270
REMARK   97  A    between atoms: _269  and  _272
REMARK   98  A    between atoms: _272  and  _273
REMARK   99  A    between atoms: _275  and  _277
REMARK  100  A    between atoms: _277  and  _278
REMARK  101  A    between atoms: _277  and  _280
REMARK  102  A    between atoms: _280  and  _281
REMARK  103  A    between atoms: _284  and  _286
REMARK  104  A    between atoms: _286  and  _287
REMARK  105  A    between atoms: _286  and  _289
REMARK  106  A    between atoms: _289  and  _290
REMARK  107  A    between atoms: _293  and  _295
REMARK  108  A    between atoms: _295  and  _296
REMARK  109  A    between atoms: _295  and  _298
REMARK  110  A    between atoms: _298  and  _299
REMARK  111  A    between atoms: _303  and  _304
REMARK  112  A    between atoms: _310  and  _311
REMARK  113  A    between atoms: _316  and  _318
REMARK  114  A    between atoms: _318  and  _319
REMARK  115  A    between atoms: _318  and  _321
REMARK  116  A    between atoms: _321  and  _322
REMARK  117  A    between atoms: _325  and  _327
REMARK  118  A    between atoms: _327  and  _328
REMARK  119  A    between atoms: _327  and  _330
REMARK  120  A    between atoms: _330  and  _331
REMARK  121  A    between atoms: _334  and  _336
REMARK  122  A    between atoms: _336  and  _337
REMARK  123  A    between atoms: _336  and  _339
REMARK  124  A    between atoms: _342  and  _344
REMARK  125  A    between atoms: _344  and  _345
REMARK  126  A    between atoms: _344  and  _347
REMARK  127  A    between atoms: _347  and  _348
REMARK  128  A    between atoms: _358  and  _360
REMARK  129  A    between atoms: _360  and  _361
REMARK  130  A    between atoms: _360  and  _363
REMARK  131  A    between atoms: _363  and  _364
REMARK  132  A    between atoms: _369  and  _371
REMARK  133  A    between atoms: _371  and  _372
REMARK  134  A    between atoms: _371  and  _374
REMARK  135  A    between atoms: _374  and  _375
REMARK  136  A    between atoms: _375  and  _376
REMARK  137  A    between atoms: _376  and  _377
REMARK                            x       y       z     vdW  Elec       q    Type
REMARK                         _______ _______ _______ _____ _____    ______ ____
ROOT
ATOM      1  CA  VAL A   1      -3.760  12.338  20.162  0.00  0.00    +0.133 C 
ENDROOT
BRANCH   1   2
ATOM      2  CB  VAL A   1      -3.128  11.660  18.907  0.00  0.00    +0.023 C 
ATOM      3  CG2 VAL A   1      -4.189  10.883  18.152  0.00  0.00    +0.002 C 
ATOM      4  CG1 VAL A   1      -2.445  12.684  18.008  0.00  0.00    +0.002 C 
ENDBRANCH   1   2
BRANCH   1   5
ATOM      5  N   VAL A   1      -4.815  13.297  19.823  0.00  0.00    -0.239 NA
ATOM      6  H   VAL A   1      -4.842  13.725  18.875  0.00  0.00    +0.142 HD
ENDBRANCH   1   5
BRANCH   1   7
ATOM      7  C   VAL A   1      -2.673  12.902  21.096  0.00  0.00    +0.224 C 
ATOM      8  O   VAL A   1      -1.645  12.264  21.334  0.00  0.00    -0.287 OA
ENDBRANCH   1   7
TORSDOF 3
REMARK  Name = ../refined-set-2016/1g4o/1g4o_pocket.pdb
REMARK  137 active torsions:
REMARK  status: ('A' for Active; 'I' for Inactive)
REMARK    1  A    between atoms: _1  and  _3
REMARK    2  A    between atoms: _3  and  _4
REMARK    3  A    between atoms: _3  and  _6
REMARK    4  A    between atoms: _6  and  _7
REMARK    5  A    between atoms: _17  and  _19
REMARK    6  A    between atoms: _19  and  _20
REMARK    7  A    between atoms: _19  and  _22
REMARK    8  A    between atoms: _22  and  _23
REMARK    9  A    between atoms: _28  and  _29
REMARK   10  A    between atoms: _31  and  _33
REMARK   11  A    between atoms: _33  and  _34
REMARK   12  A    between atoms: _33  and  _36
REMARK   13  A    between atoms: _36  and  _37
REMARK   14  A    between atoms: _40  and  _41
REMARK   15  A    between atoms: _46  and  _48
REMARK   16  A    between atoms: _48  and  _49
REMARK   17  A    between atoms: _48  and  _51
REMARK   18  A    between atoms: _51  and  _52
REMARK   19  A    between atoms: _57  and  _59
REMARK   20  A    between atoms: _59  and  _60
REMARK   21  A    between atoms: _59  and  _62
REMARK   22  A    between atoms: _62  and  _63
REMARK   23  A    between atoms: _68  and  _70
REMARK   24  A    between atoms: _70  and  _71
REMARK   25  A    between atoms: _70  and  _73
REMARK   26  A    between atoms: _73  and  _74
REMARK   27  A    between atoms: _77  and  _79
REMARK   28  A    between atoms: _79  and  _80
REMARK   29  A    between atoms: _79  and  _82
REMARK   30  A    between atoms: _82  and  _83
REMARK   31  A    between atoms: _83  and  _84
REMARK   32  A    between atoms: _89  and  _91
REMARK   33  A    between atoms: _91  and  _92
REMARK   34  A    between atoms: _91  and  _94
REMARK   35  A    between atoms: _94  and  _95
REMARK   36  A    between atoms: _101  and  _103
REMARK   37  A    between atoms: _114  and  _117
REMARK   38  A    between atoms: _117  and  _118
REMARK   39  A    between atoms: _126  and  _127
REMARK   40  A    between atoms: _135  and  _137
REMARK   41  A    between atoms: _137  and  _138
REMARK   42  A    between atoms: _137  and  _140
REMARK   43  A    between atoms: _140  and  _141
REMARK   44  A    between atoms: _141  and  _142
REMARK   45  A    between atoms: _145  and  _147
REMARK   46  A    between atoms: _147  and  _148
REMARK   47  A    between atoms: _147  and  _150
REMARK   48  A    between atoms: _150  and  _151
REMARK   49  A    between atoms: _156  and  _158
REMARK   50  A    between atoms: _158  and  _159
REMARK   51  A    between atoms: _158  and  _161
REMARK   52  A    between atoms: _161  and  _162
REMARK   53  A    between atoms: _162  and  _163
REMARK   54  A    between atoms: _166  and  _168
REMARK   55  A    between atoms: _168  and  _169
REMARK   56  A    between atoms: _168  and  _171
REMARK   57  A    between atoms: _171  and  _172
REMARK   58  A    between atoms: _175  and  _177
REMARK   59  A    between atoms: _177  and  _178
REMARK   60  A    between atoms: _177  and  _180
REMARK   61  A    between atoms: _180  and  _181
REMARK   62  A    between atoms: _182  and  ZN_386
REMARK   63  A    between atoms: _186  and  _188
REMARK   64  A    between atoms: _188  and  _189
REMARK   65  A    between atoms: _188  and  _191
REMARK   66  A    between atoms: _191  and  _192
REMARK   67  A    between atoms: _195  and  _197
REMARK   68  A    between atoms: _197  and  _198
REMARK   69  A    between atoms: _197  and  _200
REMARK   70  A    between atoms: _203  and  _205
REMARK   71  A    between atoms: _205  and  _206
REMARK   72  A    between atoms: _205  and  _208
REMARK   73  A    between atoms: _208  and  _209
REMARK   74  A    between atoms: _214  and  _216
REMARK   75  A    between atoms: _216  and  _217
REMARK   76  A    between atoms: _216  and  _219
REMARK   77  A    between atoms: _222  and  _224
REMARK   78  A    between atoms: _224  and  _225
REMARK   79  A    between atoms: _227  and  _229
REMARK   80  A    between atoms: _229  and  _230
REMARK   81  A    between atoms: _229  and  _232
REMARK   82  A    between atoms: _235  and  _237
REMARK   83  A    between atoms: _237  and  _238
REMARK   84  A    between atoms: _237  and  _240
REMARK   85  A    between atoms: _240  and  _241
REMARK   86  A    between atoms: _244  and  _246
REMARK   87  A    between atoms: _246  and  _247
REMARK   88  A    between atoms: _250  and  _252
REMARK   89  A    between atoms: _252  and  _253
REMARK   90  A    between atoms: _252  and  _255
REMARK   91  A    between atoms: _258  and  _260
REMARK   92  A    between atoms: _260  and  _261
REMARK   93  A    between atoms: _260  and  _263
REMARK   94  A    between atoms: _263  and  _264
REMARK   95  A    between atoms: _267  and  _269
REMARK   96  A    between atoms: _269  and  _270
REMARK   97  A    between atoms: _269  and  _272
REMARK   98  A    between atoms: _272  and  _273
REMARK   99  A    between atoms: _275  and  _277
REMARK  100  A    between atoms: _277  and  _278
REMARK  101  A    between atoms: _277  and  _280
REMARK  102  A    between atoms: _280  and  _281
REMARK  103  A    between atoms: _284  and  _286
REMARK  104  A    between atoms: _286  and  _287
REMARK  105  A    between atoms: _286  and  _289
REMARK  106  A    between atoms: _289  and  _290
REMARK  107  A    between atoms: _293  and  _295
REMARK  108  A    between atoms: _295  and  _296
REMARK  109  A    between atoms: _295  and  _298
REMARK  110  A    between atoms: _298  and  _299
REMARK  111  A    between atoms: _303  and  _304
REMARK  112  A    between atoms: _310  and  _311
REMARK  113  A    between atoms: _316  and  _318
REMARK  114  A    between atoms: _318  and  _319
REMARK  115  A    between atoms: _318  and  _321
REMARK  116  A    between atoms: _321  and  _322
REMARK  117  A    between atoms: _325  and  _327
REMARK  118  A    between atoms: _327  and  _328
REMARK  119  A    between atoms: _327  and  _330
REMARK  120  A    between atoms: _330  and  _331
REMARK  121  A    between atoms: _334  and  _336
REMARK  122  A    between atoms: _336  and  _337
REMARK  123  A    between atoms: _336  and  _339
REMARK  124  A    between atoms: _342  and  _344
REMARK  125  A    between atoms: _344  and  _345
REMARK  126  A    between atoms: _344  and  _347
REMARK  127  A    between atoms: _347  and  _348
REMARK  128  A    between atoms: _358  and  _360
REMARK  129  A    between atoms: _360  and  _361
REMARK  130  A    between atoms: _360  and  _363
REMARK  131  A    between atoms: _363  and  _364
REMARK  132  A    between atoms: _369  and  _371
REMARK  133  A    between atoms: _371  and  _372
REMARK  134  A    between atoms: _371  and  _374
REMARK  135  A    between atoms: _374  and  _375
REMARK  136  A    between atoms: _375  and  _376
REMARK  137  A    between atoms: _376  and  _377
REMARK                            x       y       z     vdW  Elec       q    Type
REMARK                         _______ _______ _______ _____ _____    ______ ____
ROOT
ATOM      1  C   ALA A   2     -12.432   5.096  20.998  0.00  0.00    +0.241 C 
ATOM      2  N   VAL A   3     -11.979   3.876  21.248  0.00  0.00    -0.297 N 
ATOM      3  H   VAL A   3     -11.551   3.654  22.169  0.00  0.00    +0.150 HD
ATOM      4  O   ALA A   2     -12.838   5.424  19.881  0.00  0.00    -0.273 OA
ENDROOT
BRANCH   1   5
ATOM      5  CA  ALA A   2     -12.332   6.127  22.116  0.00  0.00    +0.149 C 
ATOM      6  CB  ALA A   2     -13.708   6.684  22.436  0.00  0.00    +0.031 C 
BRANCH   5   9
ATOM      7  C   LEU A   1     -10.485   7.730  22.321  0.00  0.00    +0.238 C 
ATOM      8  O   LEU A   1     -10.265   7.462  23.500  0.00  0.00    -0.274 OA
ATOM      9  N   ALA A   2     -11.451   7.168  21.602  0.00  0.00    -0.297 N 
ATOM     10  H   ALA A   2     -11.585   7.488  20.622  0.00  0.00    +0.150 HD
BRANCH   7  11
ATOM     11  CA  LEU A   1      -9.626   8.729  21.570  0.00  0.00    +0.145 C 
BRANCH  11  12
ATOM     12  N   LEU A   1      -8.932   9.688  22.412  0.00  0.00    -0.238 NA
ATOM     13  H   LEU A   1      -8.234   9.354  23.107  0.00  0.00    +0.142 HD
ENDBRANCH  11  12
BRANCH  11  14
ATOM     14  CB  LEU A   1      -8.626   7.926  20.728  0.00  0.00    +0.026 C 
BRANCH  14  15
ATOM     15  CG  LEU A   1      -7.659   8.669  19.812  0.00  0.00    +0.002 C 
ATOM     16  CD2 LEU A   1      -6.817   7.638  19.069  0.00  0.00    +0.000 C 
ATOM     17  CD1 LEU A   1      -8.399   9.571  18.831  0.00  0.00    +0.000 C 
ENDBRANCH  14  15
ENDBRANCH  11  14
ENDBRANCH   7  11
ENDBRANCH   5   9
ENDBRANCH   1   5
BRANCH   2  18
ATOM     18  CA  VAL A   3     -12.087   2.841  20.213  0.00  0.00    +0.149 C 
BRANCH  18  19
ATOM     19  C   VAL A   3     -13.054   1.748  20.642  0.00  0.00    +0.241 C 
ATOM     20  O   VAL A   3     -12.915   1.187  21.730  0.00  0.00    -0.273 OA
ATOM     21  N   LEU A   4     -14.017   1.448  19.774  0.00  0.00    -0.298 N 
ATOM     22  H   LEU A   4     -14.067   1.970  18.876  0.00  0.00    +0.150 HD
BRANCH  21  23
ATOM     23  CA  LEU A   4     -15.002   0.411  20.044  0.00  0.00    +0.137 C 
BRANCH  23  24
ATOM     24  C   LEU A   4     -14.479  -0.864  19.378  0.00  0.00    +0.227 C 
ATOM     25  O   LEU A   4     -14.252  -0.889  18.173  0.00  0.00    -0.286 OA
ENDBRANCH  23  24
BRANCH  23  26
ATOM     26  CB  LEU A   4     -16.363   0.817  19.479  0.00  0.00    +0.028 C 
BRANCH  26  27
ATOM     27  CG  LEU A   4     -17.599   0.041  19.928  0.00  0.00    +0.002 C 
ATOM     28  CD2 LEU A   4     -17.812   0.250  21.423  0.00  0.00    +0.000 C 
ATOM     29  CD1 LEU A   4     -18.823   0.519  19.132  0.00  0.00    +0.000 C 
ENDBRANCH  26  27
ENDBRANCH  23  26
ENDBRANCH  21  23
ENDBRANCH  18  19
BRANCH  18  30
ATOM     30  CB  VAL A   3     -10.728   2.167  19.853  0.00  0.00    +0.027 C 
ATOM     31  CG2 VAL A   3      -9.723   3.202  19.437  0.00  0.00    +0.002 C 
ATOM     32  CG1 VAL A   3     -10.941   1.128  18.733  0.00  0.00    +0.002 C 
ENDBRANCH  18  30
ENDBRANCH   2  18
TORSDOF 13
REMARK  Name = ../refined-set-2016/1g4o/1g4o_pocket.pdb
REMARK  137 active torsions:
REMARK  status: ('A' for Active; 'I' for Inactive)
REMARK    1  A    between atoms: _1  and  _3
REMARK    2  A    between atoms: _3  and  _4
REMARK    3  A    between atoms: _3  and  _6
REMARK    4  A    between atoms: _6  and  _7
REMARK    5  A    between atoms: _17  and  _19
REMARK    6  A    between atoms: _19  and  _20
REMARK    7  A    between atoms: _19  and  _22
REMARK    8  A    between atoms: _22  and  _23
REMARK    9  A    between atoms: _28  and  _29
REMARK   10  A    between atoms: _31  and  _33
REMARK   11  A    between atoms: _33  and  _34
REMARK   12  A    between atoms: _33  and  _36
REMARK   13  A    between atoms: _36  and  _37
REMARK   14  A    between atoms: _40  and  _41
REMARK   15  A    between atoms: _46  and  _48
REMARK   16  A    between atoms: _48  and  _49
REMARK   17  A    between atoms: _48  and  _51
REMARK   18  A    between atoms: _51  and  _52
REMARK   19  A    between atoms: _57  and  _59
REMARK   20  A    between atoms: _59  and  _60
REMARK   21  A    between atoms: _59  and  _62
REMARK   22  A    between atoms: _62  and  _63
REMARK   23  A    between atoms: _68  and  _70
REMARK   24  A    between atoms: _70  and  _71
REMARK   25  A    between atoms: _70  and  _73
REMARK   26  A    between atoms: _73  and  _74
REMARK   27  A    between atoms: _77  and  _79
REMARK   28  A    between atoms: _79  and  _80
REMARK   29  A    between atoms: _79  and  _82
REMARK   30  A    between atoms: _82  and  _83
REMARK   31  A    between atoms: _83  and  _84
REMARK   32  A    between atoms: _89  and  _91
REMARK   33  A    between atoms: _91  and  _92
REMARK   34  A    between atoms: _91  and  _94
REMARK   35  A    between atoms: _94  and  _95
REMARK   36  A    between atoms: _101  and  _103
REMARK   37  A    between atoms: _114  and  _117
REMARK   38  A    between atoms: _117  and  _118
REMARK   39  A    between atoms: _126  and  _127
REMARK   40  A    between atoms: _135  and  _137
REMARK   41  A    between atoms: _137  and  _138
REMARK   42  A    between atoms: _137  and  _140
REMARK   43  A    between atoms: _140  and  _141
REMARK   44  A    between atoms: _141  and  _142
REMARK   45  A    between atoms: _145  and  _147
REMARK   46  A    between atoms: _147  and  _148
REMARK   47  A    between atoms: _147  and  _150
REMARK   48  A    between atoms: _150  and  _151
REMARK   49  A    between atoms: _156  and  _158
REMARK   50  A    between atoms: _158  and  _159
REMARK   51  A    between atoms: _158  and  _161
REMARK   52  A    between atoms: _161  and  _162
REMARK   53  A    between atoms: _162  and  _163
REMARK   54  A    between atoms: _166  and  _168
REMARK   55  A    between atoms: _168  and  _169
REMARK   56  A    between atoms: _168  and  _171
REMARK   57  A    between atoms: _171  and  _172
REMARK   58  A    between atoms: _175  and  _177
REMARK   59  A    between atoms: _177  and  _178
REMARK   60  A    between atoms: _177  and  _180
REMARK   61  A    between atoms: _180  and  _181
REMARK   62  A    between atoms: _182  and  ZN_386
REMARK   63  A    between atoms: _186  and  _188
REMARK   64  A    between atoms: _188  and  _189
REMARK   65  A    between atoms: _188  and  _191
REMARK   66  A    between atoms: _191  and  _192
REMARK   67  A    between atoms: _195  and  _197
REMARK   68  A    between atoms: _197  and  _198
REMARK   69  A    between atoms: _197  and  _200
REMARK   70  A    between atoms: _203  and  _205
REMARK   71  A    between atoms: _205  and  _206
REMARK   72  A    between atoms: _205  and  _208
REMARK   73  A    between atoms: _208  and  _209
REMARK   74  A    between atoms: _214  and  _216
REMARK   75  A    between atoms: _216  and  _217
REMARK   76  A    between atoms: _216  and  _219
REMARK   77  A    between atoms: _222  and  _224
REMARK   78  A    between atoms: _224  and  _225
REMARK   79  A    between atoms: _227  and  _229
REMARK   80  A    between atoms: _229  and  _230
REMARK   81  A    between atoms: _229  and  _232
REMARK   82  A    between atoms: _235  and  _237
REMARK   83  A    between atoms: _237  and  _238
REMARK   84  A    between atoms: _237  and  _240
REMARK   85  A    between atoms: _240  and  _241
REMARK   86  A    between atoms: _244  and  _246
REMARK   87  A    between atoms: _246  and  _247
REMARK   88  A    between atoms: _250  and  _252
REMARK   89  A    between atoms: _252  and  _253
REMARK   90  A    between atoms: _252  and  _255
REMARK   91  A    between atoms: _258  and  _260
REMARK   92  A    between atoms: _260  and  _261
REMARK   93  A    between atoms: _260  and  _263
REMARK   94  A    between atoms: _263  and  _264
REMARK   95  A    between atoms: _267  and  _269
REMARK   96  A    between atoms: _269  and  _270
REMARK   97  A    between atoms: _269  and  _272
REMARK   98  A    between atoms: _272  and  _273
REMARK   99  A    between atoms: _275  and  _277
REMARK  100  A    between atoms: _277  and  _278
REMARK  101  A    between atoms: _277  and  _280
REMARK  102  A    between atoms: _280  and  _281
REMARK  103  A    between atoms: _284  and  _286
REMARK  104  A    between atoms: _286  and  _287
REMARK  105  A    between atoms: _286  and  _289
REMARK  106  A    between atoms: _289  and  _290
REMARK  107  A    between atoms: _293  and  _295
REMARK  108  A    between atoms: _295  and  _296
REMARK  109  A    between atoms: _295  and  _298
REMARK  110  A    between atoms: _298  and  _299
REMARK  111  A    between atoms: _303  and  _304
REMARK  112  A    between atoms: _310  and  _311
REMARK  113  A    between atoms: _316  and  _318
REMARK  114  A    between atoms: _318  and  _319
REMARK  115  A    between atoms: _318  and  _321
REMARK  116  A    between atoms: _321  and  _322
REMARK  117  A    between atoms: _325  and  _327
REMARK  118  A    between atoms: _327  and  _328
REMARK  119  A    between atoms: _327  and  _330
REMARK  120  A    between atoms: _330  and  _331
REMARK  121  A    between atoms: _334  and  _336
REMARK  122  A    between atoms: _336  and  _337
REMARK  123  A    between atoms: _336  and  _339
REMARK  124  A    between atoms: _342  and  _344
REMARK  125  A    between atoms: _344  and  _345
REMARK  126  A    between atoms: _344  and  _347
REMARK  127  A    between atoms: _347  and  _348
REMARK  128  A    between atoms: _358  and  _360
REMARK  129  A    between atoms: _360  and  _361
REMARK  130  A    between atoms: _360  and  _363
REMARK  131  A    between atoms: _363  and  _364
REMARK  132  A    between atoms: _369  and  _371
REMARK  133  A    between atoms: _371  and  _372
REMARK  134  A    between atoms: _371  and  _374
REMARK  135  A    between atoms: _374  and  _375
REMARK  136  A    between atoms: _375  and  _376
REMARK  137  A    between atoms: _376  and  _377
REMARK                            x       y       z     vdW  Elec       q    Type
REMARK                         _______ _______ _______ _____ _____    ______ ____
ROOT
ATOM      1  C   THR A   4       0.980   1.465  16.501  0.00  0.00    +0.246 C 
ATOM      2  O   THR A   4       0.463   2.364  17.184  0.00  0.00    -0.273 OA
ATOM      3  N   PRO A   5       2.245   1.552  16.039  0.00  0.00    -0.272 N 
ATOM      4  CA  PRO A   5       3.009   2.779  16.238  0.00  0.00    +0.152 C 
ATOM      5  CB  PRO A   5       4.250   2.521  15.390  0.00  0.00    +0.031 C 
ATOM      6  CG  PRO A   5       4.479   1.075  15.593  0.00  0.00    +0.024 C 
ATOM      7  CD  PRO A   5       3.087   0.521  15.409  0.00  0.00    +0.094 C 
ENDROOT
BRANCH   4   8
ATOM      8  C   PRO A   5       2.188   3.966  15.725  0.00  0.00    +0.244 C 
ATOM      9  N   PRO A   6       2.334   5.153  16.344  0.00  0.00    -0.272 N 
ATOM     10  CA  PRO A   6       3.194   5.520  17.478  0.00  0.00    +0.152 C 
ATOM     11  CB  PRO A   6       3.230   7.053  17.394  0.00  0.00    +0.031 C 
ATOM     12  CG  PRO A   6       1.902   7.391  16.836  0.00  0.00    +0.024 C 
ATOM     13  CD  PRO A   6       1.660   6.337  15.783  0.00  0.00    +0.094 C 
ATOM     14  O   PRO A   5       1.455   3.832  14.742  0.00  0.00    -0.273 OA
BRANCH  10  15
ATOM     15  C   PRO A   6       2.831   5.000  18.898  0.00  0.00    +0.241 C 
ATOM     16  O   PRO A   6       3.496   5.369  19.878  0.00  0.00    -0.273 OA
ATOM     17  N   LEU A   7       1.785   4.170  18.995  0.00  0.00    -0.297 N 
ATOM     18  H   LEU A   7       1.255   3.946  18.129  0.00  0.00    +0.150 HD
BRANCH  17  19
ATOM     19  CA  LEU A   7       1.343   3.558  20.256  0.00  0.00    +0.149 C 
BRANCH  19  20
ATOM     20  C   LEU A   7       1.022   4.559  21.382  0.00  0.00    +0.241 C 
ATOM     21  O   LEU A   7       1.247   4.278  22.570  0.00  0.00    -0.273 OA
ATOM     22  N   LEU A   8       0.461   5.705  21.020  0.00  0.00    -0.298 N 
ATOM     23  H   LEU A   8       0.239   5.873  20.018  0.00  0.00    +0.150 HD
BRANCH  22  24
ATOM     24  CA  LEU A   8       0.151   6.734  22.009  0.00  0.00    +0.137 C 
BRANCH  24  25
ATOM     25  C   LEU A   8      -0.920   6.287  23.022  0.00  0.00    +0.227 C 
ATOM     26  O   LEU A   8      -1.925   5.671  22.670  0.00  0.00    -0.286 OA
ENDBRANCH  24  25
BRANCH  24  27
ATOM     27  CB  LEU A   8      -0.240   8.032  21.295  0.00  0.00    +0.028 C 
BRANCH  27  28
ATOM     28  CG  LEU A   8       0.832   8.567  20.330  0.00  0.00    +0.002 C 
ATOM     29  CD2 LEU A   8       2.039   9.105  21.094  0.00  0.00    +0.000 C 
ATOM     30  CD1 LEU A   8       0.233   9.651  19.472  0.00  0.00    +0.000 C 
ENDBRANCH  27  28
ENDBRANCH  24  27
ENDBRANCH  22  24
ENDBRANCH  19  20
BRANCH  19  31
ATOM     31  CB  LEU A   7       2.410   2.571  20.735  0.00  0.00    +0.029 C 
BRANCH  31  32
ATOM     32  CG  LEU A   7       2.834   1.468  19.764  0.00  0.00    +0.002 C 
ATOM     33  CD2 LEU A   7       4.255   1.018  20.088  0.00  0.00    +0.000 C 
ATOM     34  CD1 LEU A   7       1.834   0.306  19.798  0.00  0.00    +0.000 C 
ENDBRANCH  31  32
ENDBRANCH  19  31
ENDBRANCH  17  19
ENDBRANCH  10  15
ENDBRANCH   4   8
BRANCH   1  35
ATOM     35  CA  THR A   4       0.230   0.162  16.254  0.00  0.00    +0.176 C 
BRANCH  35  38
ATOM     36  C   THR A   3      -1.017  -0.982  18.016  0.00  0.00    +0.243 C 
ATOM     37  O   THR A   3      -0.375  -2.024  17.843  0.00  0.00    -0.273 OA
ATOM     38  N   THR A   4      -0.814   0.111  17.280  0.00  0.00    -0.295 N 
ATOM     39  H   THR A   4      -1.411   0.948  17.438  0.00  0.00    +0.150 HD
BRANCH  36  40
ATOM     40  CA  THR A   3      -2.112  -0.899  19.110  0.00  0.00    +0.176 C 
BRANCH  40  43
ATOM     41  C   LEU A   2      -2.448   1.301  20.053  0.00  0.00    +0.241 C 
ATOM     42  O   LEU A   2      -1.492   1.133  20.837  0.00  0.00    -0.273 OA
ATOM     43  N   THR A   3      -2.827   0.371  19.176  0.00  0.00    -0.295 N 
ATOM     44  H   THR A   3      -3.630   0.550  18.540  0.00  0.00    +0.150 HD
BRANCH  41  45
ATOM     45  CA  LEU A   2      -3.225   2.621  20.084  0.00  0.00    +0.149 C 
BRANCH  45  48
ATOM     46  C   SER A   1      -3.651   2.463  22.478  0.00  0.00    +0.241 C 
ATOM     47  O   SER A   1      -4.427   1.524  22.312  0.00  0.00    -0.274 OA
ATOM     48  N   LEU A   2      -3.066   3.093  21.467  0.00  0.00    -0.297 N 
ATOM     49  H   LEU A   2      -2.485   3.935  21.656  0.00  0.00    +0.150 HD
BRANCH  46  50
ATOM     50  CA  SER A   1      -3.332   2.990  23.882  0.00  0.00    +0.174 C 
BRANCH  50  51
ATOM     51  N   SER A   1      -4.065   2.285  24.930  0.00  0.00    -0.236 NA
ATOM     52  H   SER A   1      -4.267   1.271  24.822  0.00  0.00    +0.142 HD
ENDBRANCH  50  51
BRANCH  50  53
ATOM     53  CB  SER A   1      -1.851   2.751  24.130  0.00  0.00    +0.163 C 
BRANCH  53  54
ATOM     54  OG  SER A   1      -1.547   1.392  23.850  0.00  0.00    -0.380 OA
ATOM     55  H   SER A   1      -1.763   1.195  22.904  0.00  0.00    +0.211 HD
ENDBRANCH  53  54
ENDBRANCH  50  53
ENDBRANCH  46  50
ENDBRANCH  45  48
BRANCH  45  56
ATOM     56  CB  LEU A   2      -2.571   3.589  19.092  0.00  0.00    +0.029 C 
BRANCH  56  57
ATOM     57  CG  LEU A   2      -3.110   5.013  18.989  0.00  0.00    +0.002 C 
ATOM     58  CD2 LEU A   2      -4.537   4.982  18.514  0.00  0.00    +0.000 C 
ATOM     59  CD1 LEU A   2      -2.240   5.807  18.021  0.00  0.00    +0.000 C 
ENDBRANCH  56  57
ENDBRANCH  45  56
ENDBRANCH  41  45
ENDBRANCH  40  43
BRANCH  40  60
ATOM     60  CB  THR A   3      -3.076  -2.095  19.015  0.00  0.00    +0.137 C 
ATOM     61  CG2 THR A   3      -4.076  -2.045  20.158  0.00  0.00    +0.034 C 
BRANCH  60  62
ATOM     62  OG1 THR A   3      -3.790  -2.059  17.770  0.00  0.00    -0.382 OA
ATOM     63  HG1 THR A   3      -4.406  -2.833  17.722  0.00  0.00    +0.210 HD
ENDBRANCH  60  62
ENDBRANCH  40  60
ENDBRANCH  36  40
ENDBRANCH  35  38
BRANCH  35  64
ATOM     64  CB  THR A   4      -0.361   0.189  14.817  0.00  0.00    +0.137 C 
ATOM     65  CG2 THR A   4      -1.158  -1.054  14.545  0.00  0.00    +0.034 C 
BRANCH  64  66
ATOM     66  OG1 THR A   4      -1.216   1.319  14.675  0.00  0.00    -0.382 OA
ATOM     67  HG1 THR A   4      -0.696   2.147  14.834  0.00  0.00    +0.210 HD
ENDBRANCH  64  66
ENDBRANCH  35  64
ENDBRANCH   1  35
TORSDOF 26
REMARK  Name = ../refined-set-2016/1g4o/1g4o_pocket.pdb
REMARK  137 active torsions:
REMARK  status: ('A' for Active; 'I' for Inactive)
REMARK    1  A    between atoms: _1  and  _3
REMARK    2  A    between atoms: _3  and  _4
REMARK    3  A    between atoms: _3  and  _6
REMARK    4  A    between atoms: _6  and  _7
REMARK    5  A    between atoms: _17  and  _19
REMARK    6  A    between atoms: _19  and  _20
REMARK    7  A    between atoms: _19  and  _22
REMARK    8  A    between atoms: _22  and  _23
REMARK    9  A    between atoms: _28  and  _29
REMARK   10  A    between atoms: _31  and  _33
REMARK   11  A    between atoms: _33  and  _34
REMARK   12  A    between atoms: _33  and  _36
REMARK   13  A    between atoms: _36  and  _37
REMARK   14  A    between atoms: _40  and  _41
REMARK   15  A    between atoms: _46  and  _48
REMARK   16  A    between atoms: _48  and  _49
REMARK   17  A    between atoms: _48  and  _51
REMARK   18  A    between atoms: _51  and  _52
REMARK   19  A    between atoms: _57  and  _59
REMARK   20  A    between atoms: _59  and  _60
REMARK   21  A    between atoms: _59  and  _62
REMARK   22  A    between atoms: _62  and  _63
REMARK   23  A    between atoms: _68  and  _70
REMARK   24  A    between atoms: _70  and  _71
REMARK   25  A    between atoms: _70  and  _73
REMARK   26  A    between atoms: _73  and  _74
REMARK   27  A    between atoms: _77  and  _79
REMARK   28  A    between atoms: _79  and  _80
REMARK   29  A    between atoms: _79  and  _82
REMARK   30  A    between atoms: _82  and  _83
REMARK   31  A    between atoms: _83  and  _84
REMARK   32  A    between atoms: _89  and  _91
REMARK   33  A    between atoms: _91  and  _92
REMARK   34  A    between atoms: _91  and  _94
REMARK   35  A    between atoms: _94  and  _95
REMARK   36  A    between atoms: _101  and  _103
REMARK   37  A    between atoms: _114  and  _117
REMARK   38  A    between atoms: _117  and  _118
REMARK   39  A    between atoms: _126  and  _127
REMARK   40  A    between atoms: _135  and  _137
REMARK   41  A    between atoms: _137  and  _138
REMARK   42  A    between atoms: _137  and  _140
REMARK   43  A    between atoms: _140  and  _141
REMARK   44  A    between atoms: _141  and  _142
REMARK   45  A    between atoms: _145  and  _147
REMARK   46  A    between atoms: _147  and  _148
REMARK   47  A    between atoms: _147  and  _150
REMARK   48  A    between atoms: _150  and  _151
REMARK   49  A    between atoms: _156  and  _158
REMARK   50  A    between atoms: _158  and  _159
REMARK   51  A    between atoms: _158  and  _161
REMARK   52  A    between atoms: _161  and  _162
REMARK   53  A    between atoms: _162  and  _163
REMARK   54  A    between atoms: _166  and  _168
REMARK   55  A    between atoms: _168  and  _169
REMARK   56  A    between atoms: _168  and  _171
REMARK   57  A    between atoms: _171  and  _172
REMARK   58  A    between atoms: _175  and  _177
REMARK   59  A    between atoms: _177  and  _178
REMARK   60  A    between atoms: _177  and  _180
REMARK   61  A    between atoms: _180  and  _181
REMARK   62  A    between atoms: _182  and  ZN_386
REMARK   63  A    between atoms: _186  and  _188
REMARK   64  A    between atoms: _188  and  _189
REMARK   65  A    between atoms: _188  and  _191
REMARK   66  A    between atoms: _191  and  _192
REMARK   67  A    between atoms: _195  and  _197
REMARK   68  A    between atoms: _197  and  _198
REMARK   69  A    between atoms: _197  and  _200
REMARK   70  A    between atoms: _203  and  _205
REMARK   71  A    between atoms: _205  and  _206
REMARK   72  A    between atoms: _205  and  _208
REMARK   73  A    between atoms: _208  and  _209
REMARK   74  A    between atoms: _214  and  _216
REMARK   75  A    between atoms: _216  and  _217
REMARK   76  A    between atoms: _216  and  _219
REMARK   77  A    between atoms: _222  and  _224
REMARK   78  A    between atoms: _224  and  _225
REMARK   79  A    between atoms: _227  and  _229
REMARK   80  A    between atoms: _229  and  _230
REMARK   81  A    between atoms: _229  and  _232
REMARK   82  A    between atoms: _235  and  _237
REMARK   83  A    between atoms: _237  and  _238
REMARK   84  A    between atoms: _237  and  _240
REMARK   85  A    between atoms: _240  and  _241
REMARK   86  A    between atoms: _244  and  _246
REMARK   87  A    between atoms: _246  and  _247
REMARK   88  A    between atoms: _250  and  _252
REMARK   89  A    between atoms: _252  and  _253
REMARK   90  A    between atoms: _252  and  _255
REMARK   91  A    between atoms: _258  and  _260
REMARK   92  A    between atoms: _260  and  _261
REMARK   93  A    between atoms: _260  and  _263
REMARK   94  A    between atoms: _263  and  _264
REMARK   95  A    between atoms: _267  and  _269
REMARK   96  A    between atoms: _269  and  _270
REMARK   97  A    between atoms: _269  and  _272
REMARK   98  A    between atoms: _272  and  _273
REMARK   99  A    between atoms: _275  and  _277
REMARK  100  A    between atoms: _277  and  _278
REMARK  101  A    between atoms: _277  and  _280
REMARK  102  A    between atoms: _280  and  _281
REMARK  103  A    between atoms: _284  and  _286
REMARK  104  A    between atoms: _286  and  _287
REMARK  105  A    between atoms: _286  and  _289
REMARK  106  A    between atoms: _289  and  _290
REMARK  107  A    between atoms: _293  and  _295
REMARK  108  A    between atoms: _295  and  _296
REMARK  109  A    between atoms: _295  and  _298
REMARK  110  A    between atoms: _298  and  _299
REMARK  111  A    between atoms: _303  and  _304
REMARK  112  A    between atoms: _310  and  _311
REMARK  113  A    between atoms: _316  and  _318
REMARK  114  A    between atoms: _318  and  _319
REMARK  115  A    between atoms: _318  and  _321
REMARK  116  A    between atoms: _321  and  _322
REMARK  117  A    between atoms: _325  and  _327
REMARK  118  A    between atoms: _327  and  _328
REMARK  119  A    between atoms: _327  and  _330
REMARK  120  A    between atoms: _330  and  _331
REMARK  121  A    between atoms: _334  and  _336
REMARK  122  A    between atoms: _336  and  _337
REMARK  123  A    between atoms: _336  and  _339
REMARK  124  A    between atoms: _342  and  _344
REMARK  125  A    between atoms: _344  and  _345
REMARK  126  A    between atoms: _344  and  _347
REMARK  127  A    between atoms: _347  and  _348
REMARK  128  A    between atoms: _358  and  _360
REMARK  129  A    between atoms: _360  and  _361
REMARK  130  A    between atoms: _360  and  _363
REMARK  131  A    between atoms: _363  and  _364
REMARK  132  A    between atoms: _369  and  _371
REMARK  133  A    between atoms: _371  and  _372
REMARK  134  A    between atoms: _371  and  _374
REMARK  135  A    between atoms: _374  and  _375
REMARK  136  A    between atoms: _375  and  _376
REMARK  137  A    between atoms: _376  and  _377
REMARK                            x       y       z     vdW  Elec       q    Type
REMARK                         _______ _______ _______ _____ _____    ______ ____
ROOT
ATOM      1  CA  VAL A   1      -7.421   5.783  24.257  0.00  0.00    +0.133 C 
ENDROOT
BRANCH   1   2
ATOM      2  CB  VAL A   1      -7.121   4.617  23.259  0.00  0.00    +0.023 C 
ATOM      3  CG2 VAL A   1      -8.422   3.879  22.854  0.00  0.00    +0.002 C 
ATOM      4  CG1 VAL A   1      -6.380   5.137  22.056  0.00  0.00    +0.002 C 
ENDBRANCH   1   2
BRANCH   1   5
ATOM      5  N   VAL A   1      -6.184   6.492  24.561  0.00  0.00    -0.239 NA
ATOM      6  H   VAL A   1      -5.394   5.967  24.988  0.00  0.00    +0.142 HD
ENDBRANCH   1   5
BRANCH   1   7
ATOM      7  C   VAL A   1      -8.252   5.158  25.391  0.00  0.00    +0.224 C 
ATOM      8  O   VAL A   1      -7.729   4.430  26.251  0.00  0.00    -0.287 OA
ENDBRANCH   1   7
TORSDOF 3
REMARK  Name = ../refined-set-2016/1g4o/1g4o_pocket.pdb
REMARK  137 active torsions:
REMARK  status: ('A' for Active; 'I' for Inactive)
REMARK    1  A    between atoms: _1  and  _3
REMARK    2  A    between atoms: _3  and  _4
REMARK    3  A    between atoms: _3  and  _6
REMARK    4  A    between atoms: _6  and  _7
REMARK    5  A    between atoms: _17  and  _19
REMARK    6  A    between atoms: _19  and  _20
REMARK    7  A    between atoms: _19  and  _22
REMARK    8  A    between atoms: _22  and  _23
REMARK    9  A    between atoms: _28  and  _29
REMARK   10  A    between atoms: _31  and  _33
REMARK   11  A    between atoms: _33  and  _34
REMARK   12  A    between atoms: _33  and  _36
REMARK   13  A    between atoms: _36  and  _37
REMARK   14  A    between atoms: _40  and  _41
REMARK   15  A    between atoms: _46  and  _48
REMARK   16  A    between atoms: _48  and  _49
REMARK   17  A    between atoms: _48  and  _51
REMARK   18  A    between atoms: _51  and  _52
REMARK   19  A    between atoms: _57  and  _59
REMARK   20  A    between atoms: _59  and  _60
REMARK   21  A    between atoms: _59  and  _62
REMARK   22  A    between atoms: _62  and  _63
REMARK   23  A    between atoms: _68  and  _70
REMARK   24  A    between atoms: _70  and  _71
REMARK   25  A    between atoms: _70  and  _73
REMARK   26  A    between atoms: _73  and  _74
REMARK   27  A    between atoms: _77  and  _79
REMARK   28  A    between atoms: _79  and  _80
REMARK   29  A    between atoms: _79  and  _82
REMARK   30  A    between atoms: _82  and  _83
REMARK   31  A    between atoms: _83  and  _84
REMARK   32  A    between atoms: _89  and  _91
REMARK   33  A    between atoms: _91  and  _92
REMARK   34  A    between atoms: _91  and  _94
REMARK   35  A    between atoms: _94  and  _95
REMARK   36  A    between atoms: _101  and  _103
REMARK   37  A    between atoms: _114  and  _117
REMARK   38  A    between atoms: _117  and  _118
REMARK   39  A    between atoms: _126  and  _127
REMARK   40  A    between atoms: _135  and  _137
REMARK   41  A    between atoms: _137  and  _138
REMARK   42  A    between atoms: _137  and  _140
REMARK   43  A    between atoms: _140  and  _141
REMARK   44  A    between atoms: _141  and  _142
REMARK   45  A    between atoms: _145  and  _147
REMARK   46  A    between atoms: _147  and  _148
REMARK   47  A    between atoms: _147  and  _150
REMARK   48  A    between atoms: _150  and  _151
REMARK   49  A    between atoms: _156  and  _158
REMARK   50  A    between atoms: _158  and  _159
REMARK   51  A    between atoms: _158  and  _161
REMARK   52  A    between atoms: _161  and  _162
REMARK   53  A    between atoms: _162  and  _163
REMARK   54  A    between atoms: _166  and  _168
REMARK   55  A    between atoms: _168  and  _169
REMARK   56  A    between atoms: _168  and  _171
REMARK   57  A    between atoms: _171  and  _172
REMARK   58  A    between atoms: _175  and  _177
REMARK   59  A    between atoms: _177  and  _178
REMARK   60  A    between atoms: _177  and  _180
REMARK   61  A    between atoms: _180  and  _181
REMARK   62  A    between atoms: _182  and  ZN_386
REMARK   63  A    between atoms: _186  and  _188
REMARK   64  A    between atoms: _188  and  _189
REMARK   65  A    between atoms: _188  and  _191
REMARK   66  A    between atoms: _191  and  _192
REMARK   67  A    between atoms: _195  and  _197
REMARK   68  A    between atoms: _197  and  _198
REMARK   69  A    between atoms: _197  and  _200
REMARK   70  A    between atoms: _203  and  _205
REMARK   71  A    between atoms: _205  and  _206
REMARK   72  A    between atoms: _205  and  _208
REMARK   73  A    between atoms: _208  and  _209
REMARK   74  A    between atoms: _214  and  _216
REMARK   75  A    between atoms: _216  and  _217
REMARK   76  A    between atoms: _216  and  _219
REMARK   77  A    between atoms: _222  and  _224
REMARK   78  A    between atoms: _224  and  _225
REMARK   79  A    between atoms: _227  and  _229
REMARK   80  A    between atoms: _229  and  _230
REMARK   81  A    between atoms: _229  and  _232
REMARK   82  A    between atoms: _235  and  _237
REMARK   83  A    between atoms: _237  and  _238
REMARK   84  A    between atoms: _237  and  _240
REMARK   85  A    between atoms: _240  and  _241
REMARK   86  A    between atoms: _244  and  _246
REMARK   87  A    between atoms: _246  and  _247
REMARK   88  A    between atoms: _250  and  _252
REMARK   89  A    between atoms: _252  and  _253
REMARK   90  A    between atoms: _252  and  _255
REMARK   91  A    between atoms: _258  and  _260
REMARK   92  A    between atoms: _260  and  _261
REMARK   93  A    between atoms: _260  and  _263
REMARK   94  A    between atoms: _263  and  _264
REMARK   95  A    between atoms: _267  and  _269
REMARK   96  A    between atoms: _269  and  _270
REMARK   97  A    between atoms: _269  and  _272
REMARK   98  A    between atoms: _272  and  _273
REMARK   99  A    between atoms: _275  and  _277
REMARK  100  A    between atoms: _277  and  _278
REMARK  101  A    between atoms: _277  and  _280
REMARK  102  A    between atoms: _280  and  _281
REMARK  103  A    between atoms: _284  and  _286
REMARK  104  A    between atoms: _286  and  _287
REMARK  105  A    between atoms: _286  and  _289
REMARK  106  A    between atoms: _289  and  _290
REMARK  107  A    between atoms: _293  and  _295
REMARK  108  A    between atoms: _295  and  _296
REMARK  109  A    between atoms: _295  and  _298
REMARK  110  A    between atoms: _298  and  _299
REMARK  111  A    between atoms: _303  and  _304
REMARK  112  A    between atoms: _310  and  _311
REMARK  113  A    between atoms: _316  and  _318
REMARK  114  A    between atoms: _318  and  _319
REMARK  115  A    between atoms: _318  and  _321
REMARK  116  A    between atoms: _321  and  _322
REMARK  117  A    between atoms: _325  and  _327
REMARK  118  A    between atoms: _327  and  _328
REMARK  119  A    between atoms: _327  and  _330
REMARK  120  A    between atoms: _330  and  _331
REMARK  121  A    between atoms: _334  and  _336
REMARK  122  A    between atoms: _336  and  _337
REMARK  123  A    between atoms: _336  and  _339
REMARK  124  A    between atoms: _342  and  _344
REMARK  125  A    between atoms: _344  and  _345
REMARK  126  A    between atoms: _344  and  _347
REMARK  127  A    between atoms: _347  and  _348
REMARK  128  A    between atoms: _358  and  _360
REMARK  129  A    between atoms: _360  and  _361
REMARK  130  A    between atoms: _360  and  _363
REMARK  131  A    between atoms: _363  and  _364
REMARK  132  A    between atoms: _369  and  _371
REMARK  133  A    between atoms: _371  and  _372
REMARK  134  A    between atoms: _371  and  _374
REMARK  135  A    between atoms: _374  and  _375
REMARK  136  A    between atoms: _375  and  _376
REMARK  137  A    between atoms: _376  and  _377
REMARK                            x       y       z     vdW  Elec       q    Type
REMARK                         _______ _______ _______ _____ _____    ______ ____
ROOT
ATOM      1  CG  TRP A   1      -8.956   0.170  24.279  0.00  0.00    -0.002 A 
ATOM      2  CD1 TRP A   1      -7.711   0.727  24.421  0.00  0.00    +0.068 A 
ATOM      3  NE1 TRP A   1      -6.998   0.599  23.244  0.00  0.00    -0.352 N 
ATOM      4  HE1 TRP A   1      -6.028   0.940  23.086  0.00  0.00    +0.166 HD
ATOM      5  CE2 TRP A   1      -7.774  -0.050  22.319  0.00  0.00    +0.056 A 
ATOM      6  CZ2 TRP A   1      -7.491  -0.411  20.991  0.00  0.00    +0.017 A 
ATOM      7  CH2 TRP A   1      -8.471  -1.066  20.290  0.00  0.00    +0.001 A 
ATOM      8  CZ3 TRP A   1      -9.717  -1.366  20.874  0.00  0.00    +0.000 A 
ATOM      9  CE3 TRP A   1      -9.998  -1.008  22.189  0.00  0.00    +0.001 A 
ATOM     10  CD2 TRP A   1      -9.016  -0.337  22.931  0.00  0.00    +0.013 A 
ENDROOT
BRANCH   1  11
ATOM     11  CB  TRP A   1     -10.043   0.088  25.314  0.00  0.00    +0.053 C 
BRANCH  11  12
ATOM     12  CA  TRP A   1     -11.100   1.195  25.190  0.00  0.00    +0.137 C 
BRANCH  12  13
ATOM     13  N   TRP A   1     -10.655   2.378  25.887  0.00  0.00    -0.239 NA
ATOM     14  H   TRP A   1     -10.061   2.275  26.734  0.00  0.00    +0.142 HD
ENDBRANCH  12  13
BRANCH  12  15
ATOM     15  C   TRP A   1     -12.454   0.679  25.669  0.00  0.00    +0.224 C 
ATOM     16  O   TRP A   1     -12.679   0.520  26.873  0.00  0.00    -0.287 OA
ENDBRANCH  12  15
ENDBRANCH  11  12
ENDBRANCH   1  11
TORSDOF 4
REMARK  Name = ../refined-set-2016/1g4o/1g4o_pocket.pdb
REMARK  137 active torsions:
REMARK  status: ('A' for Active; 'I' for Inactive)
REMARK    1  A    between atoms: _1  and  _3
REMARK    2  A    between atoms: _3  and  _4
REMARK    3  A    between atoms: _3  and  _6
REMARK    4  A    between atoms: _6  and  _7
REMARK    5  A    between atoms: _17  and  _19
REMARK    6  A    between atoms: _19  and  _20
REMARK    7  A    between atoms: _19  and  _22
REMARK    8  A    between atoms: _22  and  _23
REMARK    9  A    between atoms: _28  and  _29
REMARK   10  A    between atoms: _31  and  _33
REMARK   11  A    between atoms: _33  and  _34
REMARK   12  A    between atoms: _33  and  _36
REMARK   13  A    between atoms: _36  and  _37
REMARK   14  A    between atoms: _40  and  _41
REMARK   15  A    between atoms: _46  and  _48
REMARK   16  A    between atoms: _48  and  _49
REMARK   17  A    between atoms: _48  and  _51
REMARK   18  A    between atoms: _51  and  _52
REMARK   19  A    between atoms: _57  and  _59
REMARK   20  A    between atoms: _59  and  _60
REMARK   21  A    between atoms: _59  and  _62
REMARK   22  A    between atoms: _62  and  _63
REMARK   23  A    between atoms: _68  and  _70
REMARK   24  A    between atoms: _70  and  _71
REMARK   25  A    between atoms: _70  and  _73
REMARK   26  A    between atoms: _73  and  _74
REMARK   27  A    between atoms: _77  and  _79
REMARK   28  A    between atoms: _79  and  _80
REMARK   29  A    between atoms: _79  and  _82
REMARK   30  A    between atoms: _82  and  _83
REMARK   31  A    between atoms: _83  and  _84
REMARK   32  A    between atoms: _89  and  _91
REMARK   33  A    between atoms: _91  and  _92
REMARK   34  A    between atoms: _91  and  _94
REMARK   35  A    between atoms: _94  and  _95
REMARK   36  A    between atoms: _101  and  _103
REMARK   37  A    between atoms: _114  and  _117
REMARK   38  A    between atoms: _117  and  _118
REMARK   39  A    between atoms: _126  and  _127
REMARK   40  A    between atoms: _135  and  _137
REMARK   41  A    between atoms: _137  and  _138
REMARK   42  A    between atoms: _137  and  _140
REMARK   43  A    between atoms: _140  and  _141
REMARK   44  A    between atoms: _141  and  _142
REMARK   45  A    between atoms: _145  and  _147
REMARK   46  A    between atoms: _147  and  _148
REMARK   47  A    between atoms: _147  and  _150
REMARK   48  A    between atoms: _150  and  _151
REMARK   49  A    between atoms: _156  and  _158
REMARK   50  A    between atoms: _158  and  _159
REMARK   51  A    between atoms: _158  and  _161
REMARK   52  A    between atoms: _161  and  _162
REMARK   53  A    between atoms: _162  and  _163
REMARK   54  A    between atoms: _166  and  _168
REMARK   55  A    between atoms: _168  and  _169
REMARK   56  A    between atoms: _168  and  _171
REMARK   57  A    between atoms: _171  and  _172
REMARK   58  A    between atoms: _175  and  _177
REMARK   59  A    between atoms: _177  and  _178
REMARK   60  A    between atoms: _177  and  _180
REMARK   61  A    between atoms: _180  and  _181
REMARK   62  A    between atoms: _182  and  ZN_386
REMARK   63  A    between atoms: _186  and  _188
REMARK   64  A    between atoms: _188  and  _189
REMARK   65  A    between atoms: _188  and  _191
REMARK   66  A    between atoms: _191  and  _192
REMARK   67  A    between atoms: _195  and  _197
REMARK   68  A    between atoms: _197  and  _198
REMARK   69  A    between atoms: _197  and  _200
REMARK   70  A    between atoms: _203  and  _205
REMARK   71  A    between atoms: _205  and  _206
REMARK   72  A    between atoms: _205  and  _208
REMARK   73  A    between atoms: _208  and  _209
REMARK   74  A    between atoms: _214  and  _216
REMARK   75  A    between atoms: _216  and  _217
REMARK   76  A    between atoms: _216  and  _219
REMARK   77  A    between atoms: _222  and  _224
REMARK   78  A    between atoms: _224  and  _225
REMARK   79  A    between atoms: _227  and  _229
REMARK   80  A    between atoms: _229  and  _230
REMARK   81  A    between atoms: _229  and  _232
REMARK   82  A    between atoms: _235  and  _237
REMARK   83  A    between atoms: _237  and  _238
REMARK   84  A    between atoms: _237  and  _240
REMARK   85  A    between atoms: _240  and  _241
REMARK   86  A    between atoms: _244  and  _246
REMARK   87  A    between atoms: _246  and  _247
REMARK   88  A    between atoms: _250  and  _252
REMARK   89  A    between atoms: _252  and  _253
REMARK   90  A    between atoms: _252  and  _255
REMARK   91  A    between atoms: _258  and  _260
REMARK   92  A    between atoms: _260  and  _261
REMARK   93  A    between atoms: _260  and  _263
REMARK   94  A    between atoms: _263  and  _264
REMARK   95  A    between atoms: _267  and  _269
REMARK   96  A    between atoms: _269  and  _270
REMARK   97  A    between atoms: _269  and  _272
REMARK   98  A    between atoms: _272  and  _273
REMARK   99  A    between atoms: _275  and  _277
REMARK  100  A    between atoms: _277  and  _278
REMARK  101  A    between atoms: _277  and  _280
REMARK  102  A    between atoms: _280  and  _281
REMARK  103  A    between atoms: _284  and  _286
REMARK  104  A    between atoms: _286  and  _287
REMARK  105  A    between atoms: _286  and  _289
REMARK  106  A    between atoms: _289  and  _290
REMARK  107  A    between atoms: _293  and  _295
REMARK  108  A    between atoms: _295  and  _296
REMARK  109  A    between atoms: _295  and  _298
REMARK  110  A    between atoms: _298  and  _299
REMARK  111  A    between atoms: _303  and  _304
REMARK  112  A    between atoms: _310  and  _311
REMARK  113  A    between atoms: _316  and  _318
REMARK  114  A    between atoms: _318  and  _319
REMARK  115  A    between atoms: _318  and  _321
REMARK  116  A    between atoms: _321  and  _322
REMARK  117  A    between atoms: _325  and  _327
REMARK  118  A    between atoms: _327  and  _328
REMARK  119  A    between atoms: _327  and  _330
REMARK  120  A    between atoms: _330  and  _331
REMARK  121  A    between atoms: _334  and  _336
REMARK  122  A    between atoms: _336  and  _337
REMARK  123  A    between atoms: _336  and  _339
REMARK  124  A    between atoms: _342  and  _344
REMARK  125  A    between atoms: _344  and  _345
REMARK  126  A    between atoms: _344  and  _347
REMARK  127  A    between atoms: _347  and  _348
REMARK  128  A    between atoms: _358  and  _360
REMARK  129  A    between atoms: _360  and  _361
REMARK  130  A    between atoms: _360  and  _363
REMARK  131  A    between atoms: _363  and  _364
REMARK  132  A    between atoms: _369  and  _371
REMARK  133  A    between atoms: _371  and  _372
REMARK  134  A    between atoms: _371  and  _374
REMARK  135  A    between atoms: _374  and  _375
REMARK  136  A    between atoms: _375  and  _376
REMARK  137  A    between atoms: _376  and  _377
REMARK                            x       y       z     vdW  Elec       q    Type
REMARK                         _______ _______ _______ _____ _____    ______ ____
ROOT
ATOM      1  CB  ASN A   1      -2.127  -7.038  10.527  0.00  0.00    +0.110 C 
ENDROOT
BRANCH   1   2
ATOM      2  CG  ASN A   1      -3.604  -7.306  10.252  0.00  0.00    +0.221 C 
ATOM      3  OD1 ASN A   1      -4.157  -8.321  10.677  0.00  0.00    -0.275 OA
ATOM      4  ND2 ASN A   1      -4.235  -6.415   9.488  0.00  0.00    -0.329 N 
ATOM      5 HD21 ASN A   1      -5.231  -6.564   9.230  0.00  0.00    +0.145 HD
ATOM      6 HD22 ASN A   1      -3.731  -5.570   9.150  0.00  0.00    +0.145 HD
ENDBRANCH   1   2
BRANCH   1   7
ATOM      7  CA  ASN A   1      -1.530  -7.982  11.579  0.00  0.00    +0.142 C 
BRANCH   7   8
ATOM      8  N   ASN A   1      -1.900  -9.358  11.298  0.00  0.00    -0.239 NA
ATOM      9  H   ASN A   1      -2.800  -9.558  10.816  0.00  0.00    +0.142 HD
ENDBRANCH   7   8
BRANCH   7  10
ATOM     10  C   ASN A   1      -2.049  -7.610  12.975  0.00  0.00    +0.225 C 
ATOM     11  O   ASN A   1      -2.773  -6.640  13.122  0.00  0.00    -0.287 OA
ENDBRANCH   7  10
ENDBRANCH   1   7
TORSDOF 4
REMARK  Name = ../refined-set-2016/1g4o/1g4o_pocket.pdb
REMARK  137 active torsions:
REMARK  status: ('A' for Active; 'I' for Inactive)
REMARK    1  A    between atoms: _1  and  _3
REMARK    2  A    between atoms: _3  and  _4
REMARK    3  A    between atoms: _3  and  _6
REMARK    4  A    between atoms: _6  and  _7
REMARK    5  A    between atoms: _17  and  _19
REMARK    6  A    between atoms: _19  and  _20
REMARK    7  A    between atoms: _19  and  _22
REMARK    8  A    between atoms: _22  and  _23
REMARK    9  A    between atoms: _28  and  _29
REMARK   10  A    between atoms: _31  and  _33
REMARK   11  A    between atoms: _33  and  _34
REMARK   12  A    between atoms: _33  and  _36
REMARK   13  A    between atoms: _36  and  _37
REMARK   14  A    between atoms: _40  and  _41
REMARK   15  A    between atoms: _46  and  _48
REMARK   16  A    between atoms: _48  and  _49
REMARK   17  A    between atoms: _48  and  _51
REMARK   18  A    between atoms: _51  and  _52
REMARK   19  A    between atoms: _57  and  _59
REMARK   20  A    between atoms: _59  and  _60
REMARK   21  A    between atoms: _59  and  _62
REMARK   22  A    between atoms: _62  and  _63
REMARK   23  A    between atoms: _68  and  _70
REMARK   24  A    between atoms: _70  and  _71
REMARK   25  A    between atoms: _70  and  _73
REMARK   26  A    between atoms: _73  and  _74
REMARK   27  A    between atoms: _77  and  _79
REMARK   28  A    between atoms: _79  and  _80
REMARK   29  A    between atoms: _79  and  _82
REMARK   30  A    between atoms: _82  and  _83
REMARK   31  A    between atoms: _83  and  _84
REMARK   32  A    between atoms: _89  and  _91
REMARK   33  A    between atoms: _91  and  _92
REMARK   34  A    between atoms: _91  and  _94
REMARK   35  A    between atoms: _94  and  _95
REMARK   36  A    between atoms: _101  and  _103
REMARK   37  A    between atoms: _114  and  _117
REMARK   38  A    between atoms: _117  and  _118
REMARK   39  A    between atoms: _126  and  _127
REMARK   40  A    between atoms: _135  and  _137
REMARK   41  A    between atoms: _137  and  _138
REMARK   42  A    between atoms: _137  and  _140
REMARK   43  A    between atoms: _140  and  _141
REMARK   44  A    between atoms: _141  and  _142
REMARK   45  A    between atoms: _145  and  _147
REMARK   46  A    between atoms: _147  and  _148
REMARK   47  A    between atoms: _147  and  _150
REMARK   48  A    between atoms: _150  and  _151
REMARK   49  A    between atoms: _156  and  _158
REMARK   50  A    between atoms: _158  and  _159
REMARK   51  A    between atoms: _158  and  _161
REMARK   52  A    between atoms: _161  and  _162
REMARK   53  A    between atoms: _162  and  _163
REMARK   54  A    between atoms: _166  and  _168
REMARK   55  A    between atoms: _168  and  _169
REMARK   56  A    between atoms: _168  and  _171
REMARK   57  A    between atoms: _171  and  _172
REMARK   58  A    between atoms: _175  and  _177
REMARK   59  A    between atoms: _177  and  _178
REMARK   60  A    between atoms: _177  and  _180
REMARK   61  A    between atoms: _180  and  _181
REMARK   62  A    between atoms: _182  and  ZN_386
REMARK   63  A    between atoms: _186  and  _188
REMARK   64  A    between atoms: _188  and  _189
REMARK   65  A    between atoms: _188  and  _191
REMARK   66  A    between atoms: _191  and  _192
REMARK   67  A    between atoms: _195  and  _197
REMARK   68  A    between atoms: _197  and  _198
REMARK   69  A    between atoms: _197  and  _200
REMARK   70  A    between atoms: _203  and  _205
REMARK   71  A    between atoms: _205  and  _206
REMARK   72  A    between atoms: _205  and  _208
REMARK   73  A    between atoms: _208  and  _209
REMARK   74  A    between atoms: _214  and  _216
REMARK   75  A    between atoms: _216  and  _217
REMARK   76  A    between atoms: _216  and  _219
REMARK   77  A    between atoms: _222  and  _224
REMARK   78  A    between atoms: _224  and  _225
REMARK   79  A    between atoms: _227  and  _229
REMARK   80  A    between atoms: _229  and  _230
REMARK   81  A    between atoms: _229  and  _232
REMARK   82  A    between atoms: _235  and  _237
REMARK   83  A    between atoms: _237  and  _238
REMARK   84  A    between atoms: _237  and  _240
REMARK   85  A    between atoms: _240  and  _241
REMARK   86  A    between atoms: _244  and  _246
REMARK   87  A    between atoms: _246  and  _247
REMARK   88  A    between atoms: _250  and  _252
REMARK   89  A    between atoms: _252  and  _253
REMARK   90  A    between atoms: _252  and  _255
REMARK   91  A    between atoms: _258  and  _260
REMARK   92  A    between atoms: _260  and  _261
REMARK   93  A    between atoms: _260  and  _263
REMARK   94  A    between atoms: _263  and  _264
REMARK   95  A    between atoms: _267  and  _269
REMARK   96  A    between atoms: _269  and  _270
REMARK   97  A    between atoms: _269  and  _272
REMARK   98  A    between atoms: _272  and  _273
REMARK   99  A    between atoms: _275  and  _277
REMARK  100  A    between atoms: _277  and  _278
REMARK  101  A    between atoms: _277  and  _280
REMARK  102  A    between atoms: _280  and  _281
REMARK  103  A    between atoms: _284  and  _286
REMARK  104  A    between atoms: _286  and  _287
REMARK  105  A    between atoms: _286  and  _289
REMARK  106  A    between atoms: _289  and  _290
REMARK  107  A    between atoms: _293  and  _295
REMARK  108  A    between atoms: _295  and  _296
REMARK  109  A    between atoms: _295  and  _298
REMARK  110  A    between atoms: _298  and  _299
REMARK  111  A    between atoms: _303  and  _304
REMARK  112  A    between atoms: _310  and  _311
REMARK  113  A    between atoms: _316  and  _318
REMARK  114  A    between atoms: _318  and  _319
REMARK  115  A    between atoms: _318  and  _321
REMARK  116  A    between atoms: _321  and  _322
REMARK  117  A    between atoms: _325  and  _327
REMARK  118  A    between atoms: _327  and  _328
REMARK  119  A    between atoms: _327  and  _330
REMARK  120  A    between atoms: _330  and  _331
REMARK  121  A    between atoms: _334  and  _336
REMARK  122  A    between atoms: _336  and  _337
REMARK  123  A    between atoms: _336  and  _339
REMARK  124  A    between atoms: _342  and  _344
REMARK  125  A    between atoms: _344  and  _345
REMARK  126  A    between atoms: _344  and  _347
REMARK  127  A    between atoms: _347  and  _348
REMARK  128  A    between atoms: _358  and  _360
REMARK  129  A    between atoms: _360  and  _361
REMARK  130  A    between atoms: _360  and  _363
REMARK  131  A    between atoms: _363  and  _364
REMARK  132  A    between atoms: _369  and  _371
REMARK  133  A    between atoms: _371  and  _372
REMARK  134  A    between atoms: _371  and  _374
REMARK  135  A    between atoms: _374  and  _375
REMARK  136  A    between atoms: _375  and  _376
REMARK  137  A    between atoms: _376  and  _377
REMARK                            x       y       z     vdW  Elec       q    Type
REMARK                         _______ _______ _______ _____ _____    ______ ____
ROOT
ATOM      1  NE  ARG A   1       2.153  -3.655  21.228  0.00  0.00    -0.265 N 
ATOM      2  CZ  ARG A   1       2.238  -2.700  22.151  0.00  0.00    +0.342 C 
ATOM      3  NH2 ARG A   1       3.418  -2.441  22.712  0.00  0.00    -0.292 N 
ATOM      4 HH21 ARG A   1       3.498  -1.697  23.435  0.00  0.00    +0.255 HD
ATOM      5 HH22 ARG A   1       4.259  -2.982  22.427  0.00  0.00    +0.255 HD
ATOM      6  NH1 ARG A   1       1.179  -1.952  22.468  0.00  0.00    -0.292 N 
ATOM      7 HH11 ARG A   1       1.264  -1.210  23.192  0.00  0.00    +0.255 HD
ATOM      8 HH12 ARG A   1       0.269  -2.111  21.991  0.00  0.00    +0.255 HD
ATOM      9  HE  ARG A   1       3.011  -4.211  21.038  0.00  0.00    +0.259 HD
ENDROOT
BRANCH   1  10
ATOM     10  CD  ARG A   1       0.953  -3.988  20.458  0.00  0.00    +0.174 C 
BRANCH  10  11
ATOM     11  CG  ARG A   1       0.985  -5.447  20.046  0.00  0.00    +0.045 C 
BRANCH  11  12
ATOM     12  CB  ARG A   1      -0.028  -5.723  18.944  0.00  0.00    +0.029 C 
BRANCH  12  13
ATOM     13  CA  ARG A   1      -0.091  -7.185  18.483  0.00  0.00    +0.133 C 
BRANCH  13  14
ATOM     14  N   ARG A   1      -1.087  -7.319  17.418  0.00  0.00    -0.239 NA
ATOM     15  H   ARG A   1      -1.952  -6.746  17.481  0.00  0.00    +0.142 HD
ENDBRANCH  13  14
BRANCH  13  16
ATOM     16  C   ARG A   1      -0.473  -8.076  19.668  0.00  0.00    +0.224 C 
ATOM     17  O   ARG A   1      -1.647  -8.174  20.027  0.00  0.00    -0.287 OA
ENDBRANCH  13  16
ENDBRANCH  12  13
ENDBRANCH  11  12
ENDBRANCH  10  11
ENDBRANCH   1  10
TORSDOF 6
REMARK  Name = ../refined-set-2016/1g4o/1g4o_pocket.pdb
REMARK  137 active torsions:
REMARK  status: ('A' for Active; 'I' for Inactive)
REMARK    1  A    between atoms: _1  and  _3
REMARK    2  A    between atoms: _3  and  _4
REMARK    3  A    between atoms: _3  and  _6
REMARK    4  A    between atoms: _6  and  _7
REMARK    5  A    between atoms: _17  and  _19
REMARK    6  A    between atoms: _19  and  _20
REMARK    7  A    between atoms: _19  and  _22
REMARK    8  A    between atoms: _22  and  _23
REMARK    9  A    between atoms: _28  and  _29
REMARK   10  A    between atoms: _31  and  _33
REMARK   11  A    between atoms: _33  and  _34
REMARK   12  A    between atoms: _33  and  _36
REMARK   13  A    between atoms: _36  and  _37
REMARK   14  A    between atoms: _40  and  _41
REMARK   15  A    between atoms: _46  and  _48
REMARK   16  A    between atoms: _48  and  _49
REMARK   17  A    between atoms: _48  and  _51
REMARK   18  A    between atoms: _51  and  _52
REMARK   19  A    between atoms: _57  and  _59
REMARK   20  A    between atoms: _59  and  _60
REMARK   21  A    between atoms: _59  and  _62
REMARK   22  A    between atoms: _62  and  _63
REMARK   23  A    between atoms: _68  and  _70
REMARK   24  A    between atoms: _70  and  _71
REMARK   25  A    between atoms: _70  and  _73
REMARK   26  A    between atoms: _73  and  _74
REMARK   27  A    between atoms: _77  and  _79
REMARK   28  A    between atoms: _79  and  _80
REMARK   29  A    between atoms: _79  and  _82
REMARK   30  A    between atoms: _82  and  _83
REMARK   31  A    between atoms: _83  and  _84
REMARK   32  A    between atoms: _89  and  _91
REMARK   33  A    between atoms: _91  and  _92
REMARK   34  A    between atoms: _91  and  _94
REMARK   35  A    between atoms: _94  and  _95
REMARK   36  A    between atoms: _101  and  _103
REMARK   37  A    between atoms: _114  and  _117
REMARK   38  A    between atoms: _117  and  _118
REMARK   39  A    between atoms: _126  and  _127
REMARK   40  A    between atoms: _135  and  _137
REMARK   41  A    between atoms: _137  and  _138
REMARK   42  A    between atoms: _137  and  _140
REMARK   43  A    between atoms: _140  and  _141
REMARK   44  A    between atoms: _141  and  _142
REMARK   45  A    between atoms: _145  and  _147
REMARK   46  A    between atoms: _147  and  _148
REMARK   47  A    between atoms: _147  and  _150
REMARK   48  A    between atoms: _150  and  _151
REMARK   49  A    between atoms: _156  and  _158
REMARK   50  A    between atoms: _158  and  _159
REMARK   51  A    between atoms: _158  and  _161
REMARK   52  A    between atoms: _161  and  _162
REMARK   53  A    between atoms: _162  and  _163
REMARK   54  A    between atoms: _166  and  _168
REMARK   55  A    between atoms: _168  and  _169
REMARK   56  A    between atoms: _168  and  _171
REMARK   57  A    between atoms: _171  and  _172
REMARK   58  A    between atoms: _175  and  _177
REMARK   59  A    between atoms: _177  and  _178
REMARK   60  A    between atoms: _177  and  _180
REMARK   61  A    between atoms: _180  and  _181
REMARK   62  A    between atoms: _182  and  ZN_386
REMARK   63  A    between atoms: _186  and  _188
REMARK   64  A    between atoms: _188  and  _189
REMARK   65  A    between atoms: _188  and  _191
REMARK   66  A    between atoms: _191  and  _192
REMARK   67  A    between atoms: _195  and  _197
REMARK   68  A    between atoms: _197  and  _198
REMARK   69  A    between atoms: _197  and  _200
REMARK   70  A    between atoms: _203  and  _205
REMARK   71  A    between atoms: _205  and  _206
REMARK   72  A    between atoms: _205  and  _208
REMARK   73  A    between atoms: _208  and  _209
REMARK   74  A    between atoms: _214  and  _216
REMARK   75  A    between atoms: _216  and  _217
REMARK   76  A    between atoms: _216  and  _219
REMARK   77  A    between atoms: _222  and  _224
REMARK   78  A    between atoms: _224  and  _225
REMARK   79  A    between atoms: _227  and  _229
REMARK   80  A    between atoms: _229  and  _230
REMARK   81  A    between atoms: _229  and  _232
REMARK   82  A    between atoms: _235  and  _237
REMARK   83  A    between atoms: _237  and  _238
REMARK   84  A    between atoms: _237  and  _240
REMARK   85  A    between atoms: _240  and  _241
REMARK   86  A    between atoms: _244  and  _246
REMARK   87  A    between atoms: _246  and  _247
REMARK   88  A    between atoms: _250  and  _252
REMARK   89  A    between atoms: _252  and  _253
REMARK   90  A    between atoms: _252  and  _255
REMARK   91  A    between atoms: _258  and  _260
REMARK   92  A    between atoms: _260  and  _261
REMARK   93  A    between atoms: _260  and  _263
REMARK   94  A    between atoms: _263  and  _264
REMARK   95  A    between atoms: _267  and  _269
REMARK   96  A    between atoms: _269  and  _270
REMARK   97  A    between atoms: _269  and  _272
REMARK   98  A    between atoms: _272  and  _273
REMARK   99  A    between atoms: _275  and  _277
REMARK  100  A    between atoms: _277  and  _278
REMARK  101  A    between atoms: _277  and  _280
REMARK  102  A    between atoms: _280  and  _281
REMARK  103  A    between atoms: _284  and  _286
REMARK  104  A    between atoms: _286  and  _287
REMARK  105  A    between atoms: _286  and  _289
REMARK  106  A    between atoms: _289  and  _290
REMARK  107  A    between atoms: _293  and  _295
REMARK  108  A    between atoms: _295  and  _296
REMARK  109  A    between atoms: _295  and  _298
REMARK  110  A    between atoms: _298  and  _299
REMARK  111  A    between atoms: _303  and  _304
REMARK  112  A    between atoms: _310  and  _311
REMARK  113  A    between atoms: _316  and  _318
REMARK  114  A    between atoms: _318  and  _319
REMARK  115  A    between atoms: _318  and  _321
REMARK  116  A    between atoms: _321  and  _322
REMARK  117  A    between atoms: _325  and  _327
REMARK  118  A    between atoms: _327  and  _328
REMARK  119  A    between atoms: _327  and  _330
REMARK  120  A    between atoms: _330  and  _331
REMARK  121  A    between atoms: _334  and  _336
REMARK  122  A    between atoms: _336  and  _337
REMARK  123  A    between atoms: _336  and  _339
REMARK  124  A    between atoms: _342  and  _344
REMARK  125  A    between atoms: _344  and  _345
REMARK  126  A    between atoms: _344  and  _347
REMARK  127  A    between atoms: _347  and  _348
REMARK  128  A    between atoms: _358  and  _360
REMARK  129  A    between atoms: _360  and  _361
REMARK  130  A    between atoms: _360  and  _363
REMARK  131  A    between atoms: _363  and  _364
REMARK  132  A    between atoms: _369  and  _371
REMARK  133  A    between atoms: _371  and  _372
REMARK  134  A    between atoms: _371  and  _374
REMARK  135  A    between atoms: _374  and  _375
REMARK  136  A    between atoms: _375  and  _376
REMARK  137  A    between atoms: _376  and  _377
REMARK                            x       y       z     vdW  Elec       q    Type
REMARK                         _______ _______ _______ _____ _____    ______ ____
ROOT
ATOM      1  O   HOH     1      -5.149  -1.669  11.114  0.00  0.00    +0.000 OA
ENDROOT
TORSDOF 0
REMARK  Name = ../refined-set-2016/1g4o/1g4o_pocket.pdb
REMARK  137 active torsions:
REMARK  status: ('A' for Active; 'I' for Inactive)
REMARK    1  A    between atoms: _1  and  _3
REMARK    2  A    between atoms: _3  and  _4
REMARK    3  A    between atoms: _3  and  _6
REMARK    4  A    between atoms: _6  and  _7
REMARK    5  A    between atoms: _17  and  _19
REMARK    6  A    between atoms: _19  and  _20
REMARK    7  A    between atoms: _19  and  _22
REMARK    8  A    between atoms: _22  and  _23
REMARK    9  A    between atoms: _28  and  _29
REMARK   10  A    between atoms: _31  and  _33
REMARK   11  A    between atoms: _33  and  _34
REMARK   12  A    between atoms: _33  and  _36
REMARK   13  A    between atoms: _36  and  _37
REMARK   14  A    between atoms: _40  and  _41
REMARK   15  A    between atoms: _46  and  _48
REMARK   16  A    between atoms: _48  and  _49
REMARK   17  A    between atoms: _48  and  _51
REMARK   18  A    between atoms: _51  and  _52
REMARK   19  A    between atoms: _57  and  _59
REMARK   20  A    between atoms: _59  and  _60
REMARK   21  A    between atoms: _59  and  _62
REMARK   22  A    between atoms: _62  and  _63
REMARK   23  A    between atoms: _68  and  _70
REMARK   24  A    between atoms: _70  and  _71
REMARK   25  A    between atoms: _70  and  _73
REMARK   26  A    between atoms: _73  and  _74
REMARK   27  A    between atoms: _77  and  _79
REMARK   28  A    between atoms: _79  and  _80
REMARK   29  A    between atoms: _79  and  _82
REMARK   30  A    between atoms: _82  and  _83
REMARK   31  A    between atoms: _83  and  _84
REMARK   32  A    between atoms: _89  and  _91
REMARK   33  A    between atoms: _91  and  _92
REMARK   34  A    between atoms: _91  and  _94
REMARK   35  A    between atoms: _94  and  _95
REMARK   36  A    between atoms: _101  and  _103
REMARK   37  A    between atoms: _114  and  _117
REMARK   38  A    between atoms: _117  and  _118
REMARK   39  A    between atoms: _126  and  _127
REMARK   40  A    between atoms: _135  and  _137
REMARK   41  A    between atoms: _137  and  _138
REMARK   42  A    between atoms: _137  and  _140
REMARK   43  A    between atoms: _140  and  _141
REMARK   44  A    between atoms: _141  and  _142
REMARK   45  A    between atoms: _145  and  _147
REMARK   46  A    between atoms: _147  and  _148
REMARK   47  A    between atoms: _147  and  _150
REMARK   48  A    between atoms: _150  and  _151
REMARK   49  A    between atoms: _156  and  _158
REMARK   50  A    between atoms: _158  and  _159
REMARK   51  A    between atoms: _158  and  _161
REMARK   52  A    between atoms: _161  and  _162
REMARK   53  A    between atoms: _162  and  _163
REMARK   54  A    between atoms: _166  and  _168
REMARK   55  A    between atoms: _168  and  _169
REMARK   56  A    between atoms: _168  and  _171
REMARK   57  A    between atoms: _171  and  _172
REMARK   58  A    between atoms: _175  and  _177
REMARK   59  A    between atoms: _177  and  _178
REMARK   60  A    between atoms: _177  and  _180
REMARK   61  A    between atoms: _180  and  _181
REMARK   62  A    between atoms: _182  and  ZN_386
REMARK   63  A    between atoms: _186  and  _188
REMARK   64  A    between atoms: _188  and  _189
REMARK   65  A    between atoms: _188  and  _191
REMARK   66  A    between atoms: _191  and  _192
REMARK   67  A    between atoms: _195  and  _197
REMARK   68  A    between atoms: _197  and  _198
REMARK   69  A    between atoms: _197  and  _200
REMARK   70  A    between atoms: _203  and  _205
REMARK   71  A    between atoms: _205  and  _206
REMARK   72  A    between atoms: _205  and  _208
REMARK   73  A    between atoms: _208  and  _209
REMARK   74  A    between atoms: _214  and  _216
REMARK   75  A    between atoms: _216  and  _217
REMARK   76  A    between atoms: _216  and  _219
REMARK   77  A    between atoms: _222  and  _224
REMARK   78  A    between atoms: _224  and  _225
REMARK   79  A    between atoms: _227  and  _229
REMARK   80  A    between atoms: _229  and  _230
REMARK   81  A    between atoms: _229  and  _232
REMARK   82  A    between atoms: _235  and  _237
REMARK   83  A    between atoms: _237  and  _238
REMARK   84  A    between atoms: _237  and  _240
REMARK   85  A    between atoms: _240  and  _241
REMARK   86  A    between atoms: _244  and  _246
REMARK   87  A    between atoms: _246  and  _247
REMARK   88  A    between atoms: _250  and  _252
REMARK   89  A    between atoms: _252  and  _253
REMARK   90  A    between atoms: _252  and  _255
REMARK   91  A    between atoms: _258  and  _260
REMARK   92  A    between atoms: _260  and  _261
REMARK   93  A    between atoms: _260  and  _263
REMARK   94  A    between atoms: _263  and  _264
REMARK   95  A    between atoms: _267  and  _269
REMARK   96  A    between atoms: _269  and  _270
REMARK   97  A    between atoms: _269  and  _272
REMARK   98  A    between atoms: _272  and  _273
REMARK   99  A    between atoms: _275  and  _277
REMARK  100  A    between atoms: _277  and  _278
REMARK  101  A    between atoms: _277  and  _280
REMARK  102  A    between atoms: _280  and  _281
REMARK  103  A    between atoms: _284  and  _286
REMARK  104  A    between atoms: _286  and  _287
REMARK  105  A    between atoms: _286  and  _289
REMARK  106  A    between atoms: _289  and  _290
REMARK  107  A    between atoms: _293  and  _295
REMARK  108  A    between atoms: _295  and  _296
REMARK  109  A    between atoms: _295  and  _298
REMARK  110  A    between atoms: _298  and  _299
REMARK  111  A    between atoms: _303  and  _304
REMARK  112  A    between atoms: _310  and  _311
REMARK  113  A    between atoms: _316  and  _318
REMARK  114  A    between atoms: _318  and  _319
REMARK  115  A    between atoms: _318  and  _321
REMARK  116  A    between atoms: _321  and  _322
REMARK  117  A    between atoms: _325  and  _327
REMARK  118  A    between atoms: _327  and  _328
REMARK  119  A    between atoms: _327  and  _330
REMARK  120  A    between atoms: _330  and  _331
REMARK  121  A    between atoms: _334  and  _336
REMARK  122  A    between atoms: _336  and  _337
REMARK  123  A    between atoms: _336  and  _339
REMARK  124  A    between atoms: _342  and  _344
REMARK  125  A    between atoms: _344  and  _345
REMARK  126  A    between atoms: _344  and  _347
REMARK  127  A    between atoms: _347  and  _348
REMARK  128  A    between atoms: _358  and  _360
REMARK  129  A    between atoms: _360  and  _361
REMARK  130  A    between atoms: _360  and  _363
REMARK  131  A    between atoms: _363  and  _364
REMARK  132  A    between atoms: _369  and  _371
REMARK  133  A    between atoms: _371  and  _372
REMARK  134  A    between atoms: _371  and  _374
REMARK  135  A    between atoms: _374  and  _375
REMARK  136  A    between atoms: _375  and  _376
REMARK  137  A    between atoms: _376  and  _377
REMARK                            x       y       z     vdW  Elec       q    Type
REMARK                         _______ _______ _______ _____ _____    ______ ____
ROOT
ATOM      1  O   HOH     1      -7.593  -8.098  16.162  0.00  0.00    +0.000 OA
ENDROOT
TORSDOF 0
REMARK  Name = ../refined-set-2016/1g4o/1g4o_pocket.pdb
REMARK  137 active torsions:
REMARK  status: ('A' for Active; 'I' for Inactive)
REMARK    1  A    between atoms: _1  and  _3
REMARK    2  A    between atoms: _3  and  _4
REMARK    3  A    between atoms: _3  and  _6
REMARK    4  A    between atoms: _6  and  _7
REMARK    5  A    between atoms: _17  and  _19
REMARK    6  A    between atoms: _19  and  _20
REMARK    7  A    between atoms: _19  and  _22
REMARK    8  A    between atoms: _22  and  _23
REMARK    9  A    between atoms: _28  and  _29
REMARK   10  A    between atoms: _31  and  _33
REMARK   11  A    between atoms: _33  and  _34
REMARK   12  A    between atoms: _33  and  _36
REMARK   13  A    between atoms: _36  and  _37
REMARK   14  A    between atoms: _40  and  _41
REMARK   15  A    between atoms: _46  and  _48
REMARK   16  A    between atoms: _48  and  _49
REMARK   17  A    between atoms: _48  and  _51
REMARK   18  A    between atoms: _51  and  _52
REMARK   19  A    between atoms: _57  and  _59
REMARK   20  A    between atoms: _59  and  _60
REMARK   21  A    between atoms: _59  and  _62
REMARK   22  A    between atoms: _62  and  _63
REMARK   23  A    between atoms: _68  and  _70
REMARK   24  A    between atoms: _70  and  _71
REMARK   25  A    between atoms: _70  and  _73
REMARK   26  A    between atoms: _73  and  _74
REMARK   27  A    between atoms: _77  and  _79
REMARK   28  A    between atoms: _79  and  _80
REMARK   29  A    between atoms: _79  and  _82
REMARK   30  A    between atoms: _82  and  _83
REMARK   31  A    between atoms: _83  and  _84
REMARK   32  A    between atoms: _89  and  _91
REMARK   33  A    between atoms: _91  and  _92
REMARK   34  A    between atoms: _91  and  _94
REMARK   35  A    between atoms: _94  and  _95
REMARK   36  A    between atoms: _101  and  _103
REMARK   37  A    between atoms: _114  and  _117
REMARK   38  A    between atoms: _117  and  _118
REMARK   39  A    between atoms: _126  and  _127
REMARK   40  A    between atoms: _135  and  _137
REMARK   41  A    between atoms: _137  and  _138
REMARK   42  A    between atoms: _137  and  _140
REMARK   43  A    between atoms: _140  and  _141
REMARK   44  A    between atoms: _141  and  _142
REMARK   45  A    between atoms: _145  and  _147
REMARK   46  A    between atoms: _147  and  _148
REMARK   47  A    between atoms: _147  and  _150
REMARK   48  A    between atoms: _150  and  _151
REMARK   49  A    between atoms: _156  and  _158
REMARK   50  A    between atoms: _158  and  _159
REMARK   51  A    between atoms: _158  and  _161
REMARK   52  A    between atoms: _161  and  _162
REMARK   53  A    between atoms: _162  and  _163
REMARK   54  A    between atoms: _166  and  _168
REMARK   55  A    between atoms: _168  and  _169
REMARK   56  A    between atoms: _168  and  _171
REMARK   57  A    between atoms: _171  and  _172
REMARK   58  A    between atoms: _175  and  _177
REMARK   59  A    between atoms: _177  and  _178
REMARK   60  A    between atoms: _177  and  _180
REMARK   61  A    between atoms: _180  and  _181
REMARK   62  A    between atoms: _182  and  ZN_386
REMARK   63  A    between atoms: _186  and  _188
REMARK   64  A    between atoms: _188  and  _189
REMARK   65  A    between atoms: _188  and  _191
REMARK   66  A    between atoms: _191  and  _192
REMARK   67  A    between atoms: _195  and  _197
REMARK   68  A    between atoms: _197  and  _198
REMARK   69  A    between atoms: _197  and  _200
REMARK   70  A    between atoms: _203  and  _205
REMARK   71  A    between atoms: _205  and  _206
REMARK   72  A    between atoms: _205  and  _208
REMARK   73  A    between atoms: _208  and  _209
REMARK   74  A    between atoms: _214  and  _216
REMARK   75  A    between atoms: _216  and  _217
REMARK   76  A    between atoms: _216  and  _219
REMARK   77  A    between atoms: _222  and  _224
REMARK   78  A    between atoms: _224  and  _225
REMARK   79  A    between atoms: _227  and  _229
REMARK   80  A    between atoms: _229  and  _230
REMARK   81  A    between atoms: _229  and  _232
REMARK   82  A    between atoms: _235  and  _237
REMARK   83  A    between atoms: _237  and  _238
REMARK   84  A    between atoms: _237  and  _240
REMARK   85  A    between atoms: _240  and  _241
REMARK   86  A    between atoms: _244  and  _246
REMARK   87  A    between atoms: _246  and  _247
REMARK   88  A    between atoms: _250  and  _252
REMARK   89  A    between atoms: _252  and  _253
REMARK   90  A    between atoms: _252  and  _255
REMARK   91  A    between atoms: _258  and  _260
REMARK   92  A    between atoms: _260  and  _261
REMARK   93  A    between atoms: _260  and  _263
REMARK   94  A    between atoms: _263  and  _264
REMARK   95  A    between atoms: _267  and  _269
REMARK   96  A    between atoms: _269  and  _270
REMARK   97  A    between atoms: _269  and  _272
REMARK   98  A    between atoms: _272  and  _273
REMARK   99  A    between atoms: _275  and  _277
REMARK  100  A    between atoms: _277  and  _278
REMARK  101  A    between atoms: _277  and  _280
REMARK  102  A    between atoms: _280  and  _281
REMARK  103  A    between atoms: _284  and  _286
REMARK  104  A    between atoms: _286  and  _287
REMARK  105  A    between atoms: _286  and  _289
REMARK  106  A    between atoms: _289  and  _290
REMARK  107  A    between atoms: _293  and  _295
REMARK  108  A    between atoms: _295  and  _296
REMARK  109  A    between atoms: _295  and  _298
REMARK  110  A    between atoms: _298  and  _299
REMARK  111  A    between atoms: _303  and  _304
REMARK  112  A    between atoms: _310  and  _311
REMARK  113  A    between atoms: _316  and  _318
REMARK  114  A    between atoms: _318  and  _319
REMARK  115  A    between atoms: _318  and  _321
REMARK  116  A    between atoms: _321  and  _322
REMARK  117  A    between atoms: _325  and  _327
REMARK  118  A    between atoms: _327  and  _328
REMARK  119  A    between atoms: _327  and  _330
REMARK  120  A    between atoms: _330  and  _331
REMARK  121  A    between atoms: _334  and  _336
REMARK  122  A    between atoms: _336  and  _337
REMARK  123  A    between atoms: _336  and  _339
REMARK  124  A    between atoms: _342  and  _344
REMARK  125  A    between atoms: _344  and  _345
REMARK  126  A    between atoms: _344  and  _347
REMARK  127  A    between atoms: _347  and  _348
REMARK  128  A    between atoms: _358  and  _360
REMARK  129  A    between atoms: _360  and  _361
REMARK  130  A    between atoms: _360  and  _363
REMARK  131  A    between atoms: _363  and  _364
REMARK  132  A    between atoms: _369  and  _371
REMARK  133  A    between atoms: _371  and  _372
REMARK  134  A    between atoms: _371  and  _374
REMARK  135  A    between atoms: _374  and  _375
REMARK  136  A    between atoms: _375  and  _376
REMARK  137  A    between atoms: _376  and  _377
REMARK                            x       y       z     vdW  Elec       q    Type
REMARK                         _______ _______ _______ _____ _____    ______ ____
ROOT
ATOM      1  O   HOH     1      -3.635  11.057  13.695  0.00  0.00    +0.000 OA
ENDROOT
TORSDOF 0
REMARK  Name = ../refined-set-2016/1g4o/1g4o_pocket.pdb
REMARK  137 active torsions:
REMARK  status: ('A' for Active; 'I' for Inactive)
REMARK    1  A    between atoms: _1  and  _3
REMARK    2  A    between atoms: _3  and  _4
REMARK    3  A    between atoms: _3  and  _6
REMARK    4  A    between atoms: _6  and  _7
REMARK    5  A    between atoms: _17  and  _19
REMARK    6  A    between atoms: _19  and  _20
REMARK    7  A    between atoms: _19  and  _22
REMARK    8  A    between atoms: _22  and  _23
REMARK    9  A    between atoms: _28  and  _29
REMARK   10  A    between atoms: _31  and  _33
REMARK   11  A    between atoms: _33  and  _34
REMARK   12  A    between atoms: _33  and  _36
REMARK   13  A    between atoms: _36  and  _37
REMARK   14  A    between atoms: _40  and  _41
REMARK   15  A    between atoms: _46  and  _48
REMARK   16  A    between atoms: _48  and  _49
REMARK   17  A    between atoms: _48  and  _51
REMARK   18  A    between atoms: _51  and  _52
REMARK   19  A    between atoms: _57  and  _59
REMARK   20  A    between atoms: _59  and  _60
REMARK   21  A    between atoms: _59  and  _62
REMARK   22  A    between atoms: _62  and  _63
REMARK   23  A    between atoms: _68  and  _70
REMARK   24  A    between atoms: _70  and  _71
REMARK   25  A    between atoms: _70  and  _73
REMARK   26  A    between atoms: _73  and  _74
REMARK   27  A    between atoms: _77  and  _79
REMARK   28  A    between atoms: _79  and  _80
REMARK   29  A    between atoms: _79  and  _82
REMARK   30  A    between atoms: _82  and  _83
REMARK   31  A    between atoms: _83  and  _84
REMARK   32  A    between atoms: _89  and  _91
REMARK   33  A    between atoms: _91  and  _92
REMARK   34  A    between atoms: _91  and  _94
REMARK   35  A    between atoms: _94  and  _95
REMARK   36  A    between atoms: _101  and  _103
REMARK   37  A    between atoms: _114  and  _117
REMARK   38  A    between atoms: _117  and  _118
REMARK   39  A    between atoms: _126  and  _127
REMARK   40  A    between atoms: _135  and  _137
REMARK   41  A    between atoms: _137  and  _138
REMARK   42  A    between atoms: _137  and  _140
REMARK   43  A    between atoms: _140  and  _141
REMARK   44  A    between atoms: _141  and  _142
REMARK   45  A    between atoms: _145  and  _147
REMARK   46  A    between atoms: _147  and  _148
REMARK   47  A    between atoms: _147  and  _150
REMARK   48  A    between atoms: _150  and  _151
REMARK   49  A    between atoms: _156  and  _158
REMARK   50  A    between atoms: _158  and  _159
REMARK   51  A    between atoms: _158  and  _161
REMARK   52  A    between atoms: _161  and  _162
REMARK   53  A    between atoms: _162  and  _163
REMARK   54  A    between atoms: _166  and  _168
REMARK   55  A    between atoms: _168  and  _169
REMARK   56  A    between atoms: _168  and  _171
REMARK   57  A    between atoms: _171  and  _172
REMARK   58  A    between atoms: _175  and  _177
REMARK   59  A    between atoms: _177  and  _178
REMARK   60  A    between atoms: _177  and  _180
REMARK   61  A    between atoms: _180  and  _181
REMARK   62  A    between atoms: _182  and  ZN_386
REMARK   63  A    between atoms: _186  and  _188
REMARK   64  A    between atoms: _188  and  _189
REMARK   65  A    between atoms: _188  and  _191
REMARK   66  A    between atoms: _191  and  _192
REMARK   67  A    between atoms: _195  and  _197
REMARK   68  A    between atoms: _197  and  _198
REMARK   69  A    between atoms: _197  and  _200
REMARK   70  A    between atoms: _203  and  _205
REMARK   71  A    between atoms: _205  and  _206
REMARK   72  A    between atoms: _205  and  _208
REMARK   73  A    between atoms: _208  and  _209
REMARK   74  A    between atoms: _214  and  _216
REMARK   75  A    between atoms: _216  and  _217
REMARK   76  A    between atoms: _216  and  _219
REMARK   77  A    between atoms: _222  and  _224
REMARK   78  A    between atoms: _224  and  _225
REMARK   79  A    between atoms: _227  and  _229
REMARK   80  A    between atoms: _229  and  _230
REMARK   81  A    between atoms: _229  and  _232
REMARK   82  A    between atoms: _235  and  _237
REMARK   83  A    between atoms: _237  and  _238
REMARK   84  A    between atoms: _237  and  _240
REMARK   85  A    between atoms: _240  and  _241
REMARK   86  A    between atoms: _244  and  _246
REMARK   87  A    between atoms: _246  and  _247
REMARK   88  A    between atoms: _250  and  _252
REMARK   89  A    between atoms: _252  and  _253
REMARK   90  A    between atoms: _252  and  _255
REMARK   91  A    between atoms: _258  and  _260
REMARK   92  A    between atoms: _260  and  _261
REMARK   93  A    between atoms: _260  and  _263
REMARK   94  A    between atoms: _263  and  _264
REMARK   95  A    between atoms: _267  and  _269
REMARK   96  A    between atoms: _269  and  _270
REMARK   97  A    between atoms: _269  and  _272
REMARK   98  A    between atoms: _272  and  _273
REMARK   99  A    between atoms: _275  and  _277
REMARK  100  A    between atoms: _277  and  _278
REMARK  101  A    between atoms: _277  and  _280
REMARK  102  A    between atoms: _280  and  _281
REMARK  103  A    between atoms: _284  and  _286
REMARK  104  A    between atoms: _286  and  _287
REMARK  105  A    between atoms: _286  and  _289
REMARK  106  A    between atoms: _289  and  _290
REMARK  107  A    between atoms: _293  and  _295
REMARK  108  A    between atoms: _295  and  _296
REMARK  109  A    between atoms: _295  and  _298
REMARK  110  A    between atoms: _298  and  _299
REMARK  111  A    between atoms: _303  and  _304
REMARK  112  A    between atoms: _310  and  _311
REMARK  113  A    between atoms: _316  and  _318
REMARK  114  A    between atoms: _318  and  _319
REMARK  115  A    between atoms: _318  and  _321
REMARK  116  A    between atoms: _321  and  _322
REMARK  117  A    between atoms: _325  and  _327
REMARK  118  A    between atoms: _327  and  _328
REMARK  119  A    between atoms: _327  and  _330
REMARK  120  A    between atoms: _330  and  _331
REMARK  121  A    between atoms: _334  and  _336
REMARK  122  A    between atoms: _336  and  _337
REMARK  123  A    between atoms: _336  and  _339
REMARK  124  A    between atoms: _342  and  _344
REMARK  125  A    between atoms: _344  and  _345
REMARK  126  A    between atoms: _344  and  _347
REMARK  127  A    between atoms: _347  and  _348
REMARK  128  A    between atoms: _358  and  _360
REMARK  129  A    between atoms: _360  and  _361
REMARK  130  A    between atoms: _360  and  _363
REMARK  131  A    between atoms: _363  and  _364
REMARK  132  A    between atoms: _369  and  _371
REMARK  133  A    between atoms: _371  and  _372
REMARK  134  A    between atoms: _371  and  _374
REMARK  135  A    between atoms: _374  and  _375
REMARK  136  A    between atoms: _375  and  _376
REMARK  137  A    between atoms: _376  and  _377
REMARK                            x       y       z     vdW  Elec       q    Type
REMARK                         _______ _______ _______ _____ _____    ______ ____
ROOT
ATOM      1  O   HOH     1      -4.268  -0.160  13.256  0.00  0.00    +0.000 OA
ENDROOT
TORSDOF 0
REMARK  Name = ../refined-set-2016/1g4o/1g4o_pocket.pdb
REMARK  137 active torsions:
REMARK  status: ('A' for Active; 'I' for Inactive)
REMARK    1  A    between atoms: _1  and  _3
REMARK    2  A    between atoms: _3  and  _4
REMARK    3  A    between atoms: _3  and  _6
REMARK    4  A    between atoms: _6  and  _7
REMARK    5  A    between atoms: _17  and  _19
REMARK    6  A    between atoms: _19  and  _20
REMARK    7  A    between atoms: _19  and  _22
REMARK    8  A    between atoms: _22  and  _23
REMARK    9  A    between atoms: _28  and  _29
REMARK   10  A    between atoms: _31  and  _33
REMARK   11  A    between atoms: _33  and  _34
REMARK   12  A    between atoms: _33  and  _36
REMARK   13  A    between atoms: _36  and  _37
REMARK   14  A    between atoms: _40  and  _41
REMARK   15  A    between atoms: _46  and  _48
REMARK   16  A    between atoms: _48  and  _49
REMARK   17  A    between atoms: _48  and  _51
REMARK   18  A    between atoms: _51  and  _52
REMARK   19  A    between atoms: _57  and  _59
REMARK   20  A    between atoms: _59  and  _60
REMARK   21  A    between atoms: _59  and  _62
REMARK   22  A    between atoms: _62  and  _63
REMARK   23  A    between atoms: _68  and  _70
REMARK   24  A    between atoms: _70  and  _71
REMARK   25  A    between atoms: _70  and  _73
REMARK   26  A    between atoms: _73  and  _74
REMARK   27  A    between atoms: _77  and  _79
REMARK   28  A    between atoms: _79  and  _80
REMARK   29  A    between atoms: _79  and  _82
REMARK   30  A    between atoms: _82  and  _83
REMARK   31  A    between atoms: _83  and  _84
REMARK   32  A    between atoms: _89  and  _91
REMARK   33  A    between atoms: _91  and  _92
REMARK   34  A    between atoms: _91  and  _94
REMARK   35  A    between atoms: _94  and  _95
REMARK   36  A    between atoms: _101  and  _103
REMARK   37  A    between atoms: _114  and  _117
REMARK   38  A    between atoms: _117  and  _118
REMARK   39  A    between atoms: _126  and  _127
REMARK   40  A    between atoms: _135  and  _137
REMARK   41  A    between atoms: _137  and  _138
REMARK   42  A    between atoms: _137  and  _140
REMARK   43  A    between atoms: _140  and  _141
REMARK   44  A    between atoms: _141  and  _142
REMARK   45  A    between atoms: _145  and  _147
REMARK   46  A    between atoms: _147  and  _148
REMARK   47  A    between atoms: _147  and  _150
REMARK   48  A    between atoms: _150  and  _151
REMARK   49  A    between atoms: _156  and  _158
REMARK   50  A    between atoms: _158  and  _159
REMARK   51  A    between atoms: _158  and  _161
REMARK   52  A    between atoms: _161  and  _162
REMARK   53  A    between atoms: _162  and  _163
REMARK   54  A    between atoms: _166  and  _168
REMARK   55  A    between atoms: _168  and  _169
REMARK   56  A    between atoms: _168  and  _171
REMARK   57  A    between atoms: _171  and  _172
REMARK   58  A    between atoms: _175  and  _177
REMARK   59  A    between atoms: _177  and  _178
REMARK   60  A    between atoms: _177  and  _180
REMARK   61  A    between atoms: _180  and  _181
REMARK   62  A    between atoms: _182  and  ZN_386
REMARK   63  A    between atoms: _186  and  _188
REMARK   64  A    between atoms: _188  and  _189
REMARK   65  A    between atoms: _188  and  _191
REMARK   66  A    between atoms: _191  and  _192
REMARK   67  A    between atoms: _195  and  _197
REMARK   68  A    between atoms: _197  and  _198
REMARK   69  A    between atoms: _197  and  _200
REMARK   70  A    between atoms: _203  and  _205
REMARK   71  A    between atoms: _205  and  _206
REMARK   72  A    between atoms: _205  and  _208
REMARK   73  A    between atoms: _208  and  _209
REMARK   74  A    between atoms: _214  and  _216
REMARK   75  A    between atoms: _216  and  _217
REMARK   76  A    between atoms: _216  and  _219
REMARK   77  A    between atoms: _222  and  _224
REMARK   78  A    between atoms: _224  and  _225
REMARK   79  A    between atoms: _227  and  _229
REMARK   80  A    between atoms: _229  and  _230
REMARK   81  A    between atoms: _229  and  _232
REMARK   82  A    between atoms: _235  and  _237
REMARK   83  A    between atoms: _237  and  _238
REMARK   84  A    between atoms: _237  and  _240
REMARK   85  A    between atoms: _240  and  _241
REMARK   86  A    between atoms: _244  and  _246
REMARK   87  A    between atoms: _246  and  _247
REMARK   88  A    between atoms: _250  and  _252
REMARK   89  A    between atoms: _252  and  _253
REMARK   90  A    between atoms: _252  and  _255
REMARK   91  A    between atoms: _258  and  _260
REMARK   92  A    between atoms: _260  and  _261
REMARK   93  A    between atoms: _260  and  _263
REMARK   94  A    between atoms: _263  and  _264
REMARK   95  A    between atoms: _267  and  _269
REMARK   96  A    between atoms: _269  and  _270
REMARK   97  A    between atoms: _269  and  _272
REMARK   98  A    between atoms: _272  and  _273
REMARK   99  A    between atoms: _275  and  _277
REMARK  100  A    between atoms: _277  and  _278
REMARK  101  A    between atoms: _277  and  _280
REMARK  102  A    between atoms: _280  and  _281
REMARK  103  A    between atoms: _284  and  _286
REMARK  104  A    between atoms: _286  and  _287
REMARK  105  A    between atoms: _286  and  _289
REMARK  106  A    between atoms: _289  and  _290
REMARK  107  A    between atoms: _293  and  _295
REMARK  108  A    between atoms: _295  and  _296
REMARK  109  A    between atoms: _295  and  _298
REMARK  110  A    between atoms: _298  and  _299
REMARK  111  A    between atoms: _303  and  _304
REMARK  112  A    between atoms: _310  and  _311
REMARK  113  A    between atoms: _316  and  _318
REMARK  114  A    between atoms: _318  and  _319
REMARK  115  A    between atoms: _318  and  _321
REMARK  116  A    between atoms: _321  and  _322
REMARK  117  A    between atoms: _325  and  _327
REMARK  118  A    between atoms: _327  and  _328
REMARK  119  A    between atoms: _327  and  _330
REMARK  120  A    between atoms: _330  and  _331
REMARK  121  A    between atoms: _334  and  _336
REMARK  122  A    between atoms: _336  and  _337
REMARK  123  A    between atoms: _336  and  _339
REMARK  124  A    between atoms: _342  and  _344
REMARK  125  A    between atoms: _344  and  _345
REMARK  126  A    between atoms: _344  and  _347
REMARK  127  A    between atoms: _347  and  _348
REMARK  128  A    between atoms: _358  and  _360
REMARK  129  A    between atoms: _360  and  _361
REMARK  130  A    between atoms: _360  and  _363
REMARK  131  A    between atoms: _363  and  _364
REMARK  132  A    between atoms: _369  and  _371
REMARK  133  A    between atoms: _371  and  _372
REMARK  134  A    between atoms: _371  and  _374
REMARK  135  A    between atoms: _374  and  _375
REMARK  136  A    between atoms: _375  and  _376
REMARK  137  A    between atoms: _376  and  _377
REMARK                            x       y       z     vdW  Elec       q    Type
REMARK                         _______ _______ _______ _____ _____    ______ ____
ROOT
ATOM      1  O   HOH     1      -1.063   3.784  13.326  0.00  0.00    +0.000 OA
ENDROOT
TORSDOF 0
REMARK  Name = ../refined-set-2016/1g4o/1g4o_pocket.pdb
REMARK  137 active torsions:
REMARK  status: ('A' for Active; 'I' for Inactive)
REMARK    1  A    between atoms: _1  and  _3
REMARK    2  A    between atoms: _3  and  _4
REMARK    3  A    between atoms: _3  and  _6
REMARK    4  A    between atoms: _6  and  _7
REMARK    5  A    between atoms: _17  and  _19
REMARK    6  A    between atoms: _19  and  _20
REMARK    7  A    between atoms: _19  and  _22
REMARK    8  A    between atoms: _22  and  _23
REMARK    9  A    between atoms: _28  and  _29
REMARK   10  A    between atoms: _31  and  _33
REMARK   11  A    between atoms: _33  and  _34
REMARK   12  A    between atoms: _33  and  _36
REMARK   13  A    between atoms: _36  and  _37
REMARK   14  A    between atoms: _40  and  _41
REMARK   15  A    between atoms: _46  and  _48
REMARK   16  A    between atoms: _48  and  _49
REMARK   17  A    between atoms: _48  and  _51
REMARK   18  A    between atoms: _51  and  _52
REMARK   19  A    between atoms: _57  and  _59
REMARK   20  A    between atoms: _59  and  _60
REMARK   21  A    between atoms: _59  and  _62
REMARK   22  A    between atoms: _62  and  _63
REMARK   23  A    between atoms: _68  and  _70
REMARK   24  A    between atoms: _70  and  _71
REMARK   25  A    between atoms: _70  and  _73
REMARK   26  A    between atoms: _73  and  _74
REMARK   27  A    between atoms: _77  and  _79
REMARK   28  A    between atoms: _79  and  _80
REMARK   29  A    between atoms: _79  and  _82
REMARK   30  A    between atoms: _82  and  _83
REMARK   31  A    between atoms: _83  and  _84
REMARK   32  A    between atoms: _89  and  _91
REMARK   33  A    between atoms: _91  and  _92
REMARK   34  A    between atoms: _91  and  _94
REMARK   35  A    between atoms: _94  and  _95
REMARK   36  A    between atoms: _101  and  _103
REMARK   37  A    between atoms: _114  and  _117
REMARK   38  A    between atoms: _117  and  _118
REMARK   39  A    between atoms: _126  and  _127
REMARK   40  A    between atoms: _135  and  _137
REMARK   41  A    between atoms: _137  and  _138
REMARK   42  A    between atoms: _137  and  _140
REMARK   43  A    between atoms: _140  and  _141
REMARK   44  A    between atoms: _141  and  _142
REMARK   45  A    between atoms: _145  and  _147
REMARK   46  A    between atoms: _147  and  _148
REMARK   47  A    between atoms: _147  and  _150
REMARK   48  A    between atoms: _150  and  _151
REMARK   49  A    between atoms: _156  and  _158
REMARK   50  A    between atoms: _158  and  _159
REMARK   51  A    between atoms: _158  and  _161
REMARK   52  A    between atoms: _161  and  _162
REMARK   53  A    between atoms: _162  and  _163
REMARK   54  A    between atoms: _166  and  _168
REMARK   55  A    between atoms: _168  and  _169
REMARK   56  A    between atoms: _168  and  _171
REMARK   57  A    between atoms: _171  and  _172
REMARK   58  A    between atoms: _175  and  _177
REMARK   59  A    between atoms: _177  and  _178
REMARK   60  A    between atoms: _177  and  _180
REMARK   61  A    between atoms: _180  and  _181
REMARK   62  A    between atoms: _182  and  ZN_386
REMARK   63  A    between atoms: _186  and  _188
REMARK   64  A    between atoms: _188  and  _189
REMARK   65  A    between atoms: _188  and  _191
REMARK   66  A    between atoms: _191  and  _192
REMARK   67  A    between atoms: _195  and  _197
REMARK   68  A    between atoms: _197  and  _198
REMARK   69  A    between atoms: _197  and  _200
REMARK   70  A    between atoms: _203  and  _205
REMARK   71  A    between atoms: _205  and  _206
REMARK   72  A    between atoms: _205  and  _208
REMARK   73  A    between atoms: _208  and  _209
REMARK   74  A    between atoms: _214  and  _216
REMARK   75  A    between atoms: _216  and  _217
REMARK   76  A    between atoms: _216  and  _219
REMARK   77  A    between atoms: _222  and  _224
REMARK   78  A    between atoms: _224  and  _225
REMARK   79  A    between atoms: _227  and  _229
REMARK   80  A    between atoms: _229  and  _230
REMARK   81  A    between atoms: _229  and  _232
REMARK   82  A    between atoms: _235  and  _237
REMARK   83  A    between atoms: _237  and  _238
REMARK   84  A    between atoms: _237  and  _240
REMARK   85  A    between atoms: _240  and  _241
REMARK   86  A    between atoms: _244  and  _246
REMARK   87  A    between atoms: _246  and  _247
REMARK   88  A    between atoms: _250  and  _252
REMARK   89  A    between atoms: _252  and  _253
REMARK   90  A    between atoms: _252  and  _255
REMARK   91  A    between atoms: _258  and  _260
REMARK   92  A    between atoms: _260  and  _261
REMARK   93  A    between atoms: _260  and  _263
REMARK   94  A    between atoms: _263  and  _264
REMARK   95  A    between atoms: _267  and  _269
REMARK   96  A    between atoms: _269  and  _270
REMARK   97  A    between atoms: _269  and  _272
REMARK   98  A    between atoms: _272  and  _273
REMARK   99  A    between atoms: _275  and  _277
REMARK  100  A    between atoms: _277  and  _278
REMARK  101  A    between atoms: _277  and  _280
REMARK  102  A    between atoms: _280  and  _281
REMARK  103  A    between atoms: _284  and  _286
REMARK  104  A    between atoms: _286  and  _287
REMARK  105  A    between atoms: _286  and  _289
REMARK  106  A    between atoms: _289  and  _290
REMARK  107  A    between atoms: _293  and  _295
REMARK  108  A    between atoms: _295  and  _296
REMARK  109  A    between atoms: _295  and  _298
REMARK  110  A    between atoms: _298  and  _299
REMARK  111  A    between atoms: _303  and  _304
REMARK  112  A    between atoms: _310  and  _311
REMARK  113  A    between atoms: _316  and  _318
REMARK  114  A    between atoms: _318  and  _319
REMARK  115  A    between atoms: _318  and  _321
REMARK  116  A    between atoms: _321  and  _322
REMARK  117  A    between atoms: _325  and  _327
REMARK  118  A    between atoms: _327  and  _328
REMARK  119  A    between atoms: _327  and  _330
REMARK  120  A    between atoms: _330  and  _331
REMARK  121  A    between atoms: _334  and  _336
REMARK  122  A    between atoms: _336  and  _337
REMARK  123  A    between atoms: _336  and  _339
REMARK  124  A    between atoms: _342  and  _344
REMARK  125  A    between atoms: _344  and  _345
REMARK  126  A    between atoms: _344  and  _347
REMARK  127  A    between atoms: _347  and  _348
REMARK  128  A    between atoms: _358  and  _360
REMARK  129  A    between atoms: _360  and  _361
REMARK  130  A    between atoms: _360  and  _363
REMARK  131  A    between atoms: _363  and  _364
REMARK  132  A    between atoms: _369  and  _371
REMARK  133  A    between atoms: _371  and  _372
REMARK  134  A    between atoms: _371  and  _374
REMARK  135  A    between atoms: _374  and  _375
REMARK  136  A    between atoms: _375  and  _376
REMARK  137  A    between atoms: _376  and  _377
REMARK                            x       y       z     vdW  Elec       q    Type
REMARK                         _______ _______ _______ _____ _____    ______ ____
ROOT
ATOM      1  O   HOH     1      -2.795  -0.273  10.795  0.00  0.00    +0.000 OA
ENDROOT
TORSDOF 0
REMARK  Name = ../refined-set-2016/1g4o/1g4o_pocket.pdb
REMARK  137 active torsions:
REMARK  status: ('A' for Active; 'I' for Inactive)
REMARK    1  A    between atoms: _1  and  _3
REMARK    2  A    between atoms: _3  and  _4
REMARK    3  A    between atoms: _3  and  _6
REMARK    4  A    between atoms: _6  and  _7
REMARK    5  A    between atoms: _17  and  _19
REMARK    6  A    between atoms: _19  and  _20
REMARK    7  A    between atoms: _19  and  _22
REMARK    8  A    between atoms: _22  and  _23
REMARK    9  A    between atoms: _28  and  _29
REMARK   10  A    between atoms: _31  and  _33
REMARK   11  A    between atoms: _33  and  _34
REMARK   12  A    between atoms: _33  and  _36
REMARK   13  A    between atoms: _36  and  _37
REMARK   14  A    between atoms: _40  and  _41
REMARK   15  A    between atoms: _46  and  _48
REMARK   16  A    between atoms: _48  and  _49
REMARK   17  A    between atoms: _48  and  _51
REMARK   18  A    between atoms: _51  and  _52
REMARK   19  A    between atoms: _57  and  _59
REMARK   20  A    between atoms: _59  and  _60
REMARK   21  A    between atoms: _59  and  _62
REMARK   22  A    between atoms: _62  and  _63
REMARK   23  A    between atoms: _68  and  _70
REMARK   24  A    between atoms: _70  and  _71
REMARK   25  A    between atoms: _70  and  _73
REMARK   26  A    between atoms: _73  and  _74
REMARK   27  A    between atoms: _77  and  _79
REMARK   28  A    between atoms: _79  and  _80
REMARK   29  A    between atoms: _79  and  _82
REMARK   30  A    between atoms: _82  and  _83
REMARK   31  A    between atoms: _83  and  _84
REMARK   32  A    between atoms: _89  and  _91
REMARK   33  A    between atoms: _91  and  _92
REMARK   34  A    between atoms: _91  and  _94
REMARK   35  A    between atoms: _94  and  _95
REMARK   36  A    between atoms: _101  and  _103
REMARK   37  A    between atoms: _114  and  _117
REMARK   38  A    between atoms: _117  and  _118
REMARK   39  A    between atoms: _126  and  _127
REMARK   40  A    between atoms: _135  and  _137
REMARK   41  A    between atoms: _137  and  _138
REMARK   42  A    between atoms: _137  and  _140
REMARK   43  A    between atoms: _140  and  _141
REMARK   44  A    between atoms: _141  and  _142
REMARK   45  A    between atoms: _145  and  _147
REMARK   46  A    between atoms: _147  and  _148
REMARK   47  A    between atoms: _147  and  _150
REMARK   48  A    between atoms: _150  and  _151
REMARK   49  A    between atoms: _156  and  _158
REMARK   50  A    between atoms: _158  and  _159
REMARK   51  A    between atoms: _158  and  _161
REMARK   52  A    between atoms: _161  and  _162
REMARK   53  A    between atoms: _162  and  _163
REMARK   54  A    between atoms: _166  and  _168
REMARK   55  A    between atoms: _168  and  _169
REMARK   56  A    between atoms: _168  and  _171
REMARK   57  A    between atoms: _171  and  _172
REMARK   58  A    between atoms: _175  and  _177
REMARK   59  A    between atoms: _177  and  _178
REMARK   60  A    between atoms: _177  and  _180
REMARK   61  A    between atoms: _180  and  _181
REMARK   62  A    between atoms: _182  and  ZN_386
REMARK   63  A    between atoms: _186  and  _188
REMARK   64  A    between atoms: _188  and  _189
REMARK   65  A    between atoms: _188  and  _191
REMARK   66  A    between atoms: _191  and  _192
REMARK   67  A    between atoms: _195  and  _197
REMARK   68  A    between atoms: _197  and  _198
REMARK   69  A    between atoms: _197  and  _200
REMARK   70  A    between atoms: _203  and  _205
REMARK   71  A    between atoms: _205  and  _206
REMARK   72  A    between atoms: _205  and  _208
REMARK   73  A    between atoms: _208  and  _209
REMARK   74  A    between atoms: _214  and  _216
REMARK   75  A    between atoms: _216  and  _217
REMARK   76  A    between atoms: _216  and  _219
REMARK   77  A    between atoms: _222  and  _224
REMARK   78  A    between atoms: _224  and  _225
REMARK   79  A    between atoms: _227  and  _229
REMARK   80  A    between atoms: _229  and  _230
REMARK   81  A    between atoms: _229  and  _232
REMARK   82  A    between atoms: _235  and  _237
REMARK   83  A    between atoms: _237  and  _238
REMARK   84  A    between atoms: _237  and  _240
REMARK   85  A    between atoms: _240  and  _241
REMARK   86  A    between atoms: _244  and  _246
REMARK   87  A    between atoms: _246  and  _247
REMARK   88  A    between atoms: _250  and  _252
REMARK   89  A    between atoms: _252  and  _253
REMARK   90  A    between atoms: _252  and  _255
REMARK   91  A    between atoms: _258  and  _260
REMARK   92  A    between atoms: _260  and  _261
REMARK   93  A    between atoms: _260  and  _263
REMARK   94  A    between atoms: _263  and  _264
REMARK   95  A    between atoms: _267  and  _269
REMARK   96  A    between atoms: _269  and  _270
REMARK   97  A    between atoms: _269  and  _272
REMARK   98  A    between atoms: _272  and  _273
REMARK   99  A    between atoms: _275  and  _277
REMARK  100  A    between atoms: _277  and  _278
REMARK  101  A    between atoms: _277  and  _280
REMARK  102  A    between atoms: _280  and  _281
REMARK  103  A    between atoms: _284  and  _286
REMARK  104  A    between atoms: _286  and  _287
REMARK  105  A    between atoms: _286  and  _289
REMARK  106  A    between atoms: _289  and  _290
REMARK  107  A    between atoms: _293  and  _295
REMARK  108  A    between atoms: _295  and  _296
REMARK  109  A    between atoms: _295  and  _298
REMARK  110  A    between atoms: _298  and  _299
REMARK  111  A    between atoms: _303  and  _304
REMARK  112  A    between atoms: _310  and  _311
REMARK  113  A    between atoms: _316  and  _318
REMARK  114  A    between atoms: _318  and  _319
REMARK  115  A    between atoms: _318  and  _321
REMARK  116  A    between atoms: _321  and  _322
REMARK  117  A    between atoms: _325  and  _327
REMARK  118  A    between atoms: _327  and  _328
REMARK  119  A    between atoms: _327  and  _330
REMARK  120  A    between atoms: _330  and  _331
REMARK  121  A    between atoms: _334  and  _336
REMARK  122  A    between atoms: _336  and  _337
REMARK  123  A    between atoms: _336  and  _339
REMARK  124  A    between atoms: _342  and  _344
REMARK  125  A    between atoms: _344  and  _345
REMARK  126  A    between atoms: _344  and  _347
REMARK  127  A    between atoms: _347  and  _348
REMARK  128  A    between atoms: _358  and  _360
REMARK  129  A    between atoms: _360  and  _361
REMARK  130  A    between atoms: _360  and  _363
REMARK  131  A    between atoms: _363  and  _364
REMARK  132  A    between atoms: _369  and  _371
REMARK  133  A    between atoms: _371  and  _372
REMARK  134  A    between atoms: _371  and  _374
REMARK  135  A    between atoms: _374  and  _375
REMARK  136  A    between atoms: _375  and  _376
REMARK  137  A    between atoms: _376  and  _377
REMARK                            x       y       z     vdW  Elec       q    Type
REMARK                         _______ _______ _______ _____ _____    ______ ____
ROOT
ATOM      1  O   HOH     1       1.777  12.976  21.476  0.00  0.00    +0.000 OA
ENDROOT
TORSDOF 0
REMARK  Name = ../refined-set-2016/1g4o/1g4o_pocket.pdb
REMARK  137 active torsions:
REMARK  status: ('A' for Active; 'I' for Inactive)
REMARK    1  A    between atoms: _1  and  _3
REMARK    2  A    between atoms: _3  and  _4
REMARK    3  A    between atoms: _3  and  _6
REMARK    4  A    between atoms: _6  and  _7
REMARK    5  A    between atoms: _17  and  _19
REMARK    6  A    between atoms: _19  and  _20
REMARK    7  A    between atoms: _19  and  _22
REMARK    8  A    between atoms: _22  and  _23
REMARK    9  A    between atoms: _28  and  _29
REMARK   10  A    between atoms: _31  and  _33
REMARK   11  A    between atoms: _33  and  _34
REMARK   12  A    between atoms: _33  and  _36
REMARK   13  A    between atoms: _36  and  _37
REMARK   14  A    between atoms: _40  and  _41
REMARK   15  A    between atoms: _46  and  _48
REMARK   16  A    between atoms: _48  and  _49
REMARK   17  A    between atoms: _48  and  _51
REMARK   18  A    between atoms: _51  and  _52
REMARK   19  A    between atoms: _57  and  _59
REMARK   20  A    between atoms: _59  and  _60
REMARK   21  A    between atoms: _59  and  _62
REMARK   22  A    between atoms: _62  and  _63
REMARK   23  A    between atoms: _68  and  _70
REMARK   24  A    between atoms: _70  and  _71
REMARK   25  A    between atoms: _70  and  _73
REMARK   26  A    between atoms: _73  and  _74
REMARK   27  A    between atoms: _77  and  _79
REMARK   28  A    between atoms: _79  and  _80
REMARK   29  A    between atoms: _79  and  _82
REMARK   30  A    between atoms: _82  and  _83
REMARK   31  A    between atoms: _83  and  _84
REMARK   32  A    between atoms: _89  and  _91
REMARK   33  A    between atoms: _91  and  _92
REMARK   34  A    between atoms: _91  and  _94
REMARK   35  A    between atoms: _94  and  _95
REMARK   36  A    between atoms: _101  and  _103
REMARK   37  A    between atoms: _114  and  _117
REMARK   38  A    between atoms: _117  and  _118
REMARK   39  A    between atoms: _126  and  _127
REMARK   40  A    between atoms: _135  and  _137
REMARK   41  A    between atoms: _137  and  _138
REMARK   42  A    between atoms: _137  and  _140
REMARK   43  A    between atoms: _140  and  _141
REMARK   44  A    between atoms: _141  and  _142
REMARK   45  A    between atoms: _145  and  _147
REMARK   46  A    between atoms: _147  and  _148
REMARK   47  A    between atoms: _147  and  _150
REMARK   48  A    between atoms: _150  and  _151
REMARK   49  A    between atoms: _156  and  _158
REMARK   50  A    between atoms: _158  and  _159
REMARK   51  A    between atoms: _158  and  _161
REMARK   52  A    between atoms: _161  and  _162
REMARK   53  A    between atoms: _162  and  _163
REMARK   54  A    between atoms: _166  and  _168
REMARK   55  A    between atoms: _168  and  _169
REMARK   56  A    between atoms: _168  and  _171
REMARK   57  A    between atoms: _171  and  _172
REMARK   58  A    between atoms: _175  and  _177
REMARK   59  A    between atoms: _177  and  _178
REMARK   60  A    between atoms: _177  and  _180
REMARK   61  A    between atoms: _180  and  _181
REMARK   62  A    between atoms: _182  and  ZN_386
REMARK   63  A    between atoms: _186  and  _188
REMARK   64  A    between atoms: _188  and  _189
REMARK   65  A    between atoms: _188  and  _191
REMARK   66  A    between atoms: _191  and  _192
REMARK   67  A    between atoms: _195  and  _197
REMARK   68  A    between atoms: _197  and  _198
REMARK   69  A    between atoms: _197  and  _200
REMARK   70  A    between atoms: _203  and  _205
REMARK   71  A    between atoms: _205  and  _206
REMARK   72  A    between atoms: _205  and  _208
REMARK   73  A    between atoms: _208  and  _209
REMARK   74  A    between atoms: _214  and  _216
REMARK   75  A    between atoms: _216  and  _217
REMARK   76  A    between atoms: _216  and  _219
REMARK   77  A    between atoms: _222  and  _224
REMARK   78  A    between atoms: _224  and  _225
REMARK   79  A    between atoms: _227  and  _229
REMARK   80  A    between atoms: _229  and  _230
REMARK   81  A    between atoms: _229  and  _232
REMARK   82  A    between atoms: _235  and  _237
REMARK   83  A    between atoms: _237  and  _238
REMARK   84  A    between atoms: _237  and  _240
REMARK   85  A    between atoms: _240  and  _241
REMARK   86  A    between atoms: _244  and  _246
REMARK   87  A    between atoms: _246  and  _247
REMARK   88  A    between atoms: _250  and  _252
REMARK   89  A    between atoms: _252  and  _253
REMARK   90  A    between atoms: _252  and  _255
REMARK   91  A    between atoms: _258  and  _260
REMARK   92  A    between atoms: _260  and  _261
REMARK   93  A    between atoms: _260  and  _263
REMARK   94  A    between atoms: _263  and  _264
REMARK   95  A    between atoms: _267  and  _269
REMARK   96  A    between atoms: _269  and  _270
REMARK   97  A    between atoms: _269  and  _272
REMARK   98  A    between atoms: _272  and  _273
REMARK   99  A    between atoms: _275  and  _277
REMARK  100  A    between atoms: _277  and  _278
REMARK  101  A    between atoms: _277  and  _280
REMARK  102  A    between atoms: _280  and  _281
REMARK  103  A    between atoms: _284  and  _286
REMARK  104  A    between atoms: _286  and  _287
REMARK  105  A    between atoms: _286  and  _289
REMARK  106  A    between atoms: _289  and  _290
REMARK  107  A    between atoms: _293  and  _295
REMARK  108  A    between atoms: _295  and  _296
REMARK  109  A    between atoms: _295  and  _298
REMARK  110  A    between atoms: _298  and  _299
REMARK  111  A    between atoms: _303  and  _304
REMARK  112  A    between atoms: _310  and  _311
REMARK  113  A    between atoms: _316  and  _318
REMARK  114  A    between atoms: _318  and  _319
REMARK  115  A    between atoms: _318  and  _321
REMARK  116  A    between atoms: _321  and  _322
REMARK  117  A    between atoms: _325  and  _327
REMARK  118  A    between atoms: _327  and  _328
REMARK  119  A    between atoms: _327  and  _330
REMARK  120  A    between atoms: _330  and  _331
REMARK  121  A    between atoms: _334  and  _336
REMARK  122  A    between atoms: _336  and  _337
REMARK  123  A    between atoms: _336  and  _339
REMARK  124  A    between atoms: _342  and  _344
REMARK  125  A    between atoms: _344  and  _345
REMARK  126  A    between atoms: _344  and  _347
REMARK  127  A    between atoms: _347  and  _348
REMARK  128  A    between atoms: _358  and  _360
REMARK  129  A    between atoms: _360  and  _361
REMARK  130  A    between atoms: _360  and  _363
REMARK  131  A    between atoms: _363  and  _364
REMARK  132  A    between atoms: _369  and  _371
REMARK  133  A    between atoms: _371  and  _372
REMARK  134  A    between atoms: _371  and  _374
REMARK  135  A    between atoms: _374  and  _375
REMARK  136  A    between atoms: _375  and  _376
REMARK  137  A    between atoms: _376  and  _377
REMARK                            x       y       z     vdW  Elec       q    Type
REMARK                         _______ _______ _______ _____ _____    ______ ____
ROOT
ATOM      1  O   HOH     1      -5.234   1.316  10.951  0.00  0.00    +0.000 OA
ENDROOT
TORSDOF 0
REMARK  Name = ../refined-set-2016/1g4o/1g4o_pocket.pdb
REMARK  137 active torsions:
REMARK  status: ('A' for Active; 'I' for Inactive)
REMARK    1  A    between atoms: _1  and  _3
REMARK    2  A    between atoms: _3  and  _4
REMARK    3  A    between atoms: _3  and  _6
REMARK    4  A    between atoms: _6  and  _7
REMARK    5  A    between atoms: _17  and  _19
REMARK    6  A    between atoms: _19  and  _20
REMARK    7  A    between atoms: _19  and  _22
REMARK    8  A    between atoms: _22  and  _23
REMARK    9  A    between atoms: _28  and  _29
REMARK   10  A    between atoms: _31  and  _33
REMARK   11  A    between atoms: _33  and  _34
REMARK   12  A    between atoms: _33  and  _36
REMARK   13  A    between atoms: _36  and  _37
REMARK   14  A    between atoms: _40  and  _41
REMARK   15  A    between atoms: _46  and  _48
REMARK   16  A    between atoms: _48  and  _49
REMARK   17  A    between atoms: _48  and  _51
REMARK   18  A    between atoms: _51  and  _52
REMARK   19  A    between atoms: _57  and  _59
REMARK   20  A    between atoms: _59  and  _60
REMARK   21  A    between atoms: _59  and  _62
REMARK   22  A    between atoms: _62  and  _63
REMARK   23  A    between atoms: _68  and  _70
REMARK   24  A    between atoms: _70  and  _71
REMARK   25  A    between atoms: _70  and  _73
REMARK   26  A    between atoms: _73  and  _74
REMARK   27  A    between atoms: _77  and  _79
REMARK   28  A    between atoms: _79  and  _80
REMARK   29  A    between atoms: _79  and  _82
REMARK   30  A    between atoms: _82  and  _83
REMARK   31  A    between atoms: _83  and  _84
REMARK   32  A    between atoms: _89  and  _91
REMARK   33  A    between atoms: _91  and  _92
REMARK   34  A    between atoms: _91  and  _94
REMARK   35  A    between atoms: _94  and  _95
REMARK   36  A    between atoms: _101  and  _103
REMARK   37  A    between atoms: _114  and  _117
REMARK   38  A    between atoms: _117  and  _118
REMARK   39  A    between atoms: _126  and  _127
REMARK   40  A    between atoms: _135  and  _137
REMARK   41  A    between atoms: _137  and  _138
REMARK   42  A    between atoms: _137  and  _140
REMARK   43  A    between atoms: _140  and  _141
REMARK   44  A    between atoms: _141  and  _142
REMARK   45  A    between atoms: _145  and  _147
REMARK   46  A    between atoms: _147  and  _148
REMARK   47  A    between atoms: _147  and  _150
REMARK   48  A    between atoms: _150  and  _151
REMARK   49  A    between atoms: _156  and  _158
REMARK   50  A    between atoms: _158  and  _159
REMARK   51  A    between atoms: _158  and  _161
REMARK   52  A    between atoms: _161  and  _162
REMARK   53  A    between atoms: _162  and  _163
REMARK   54  A    between atoms: _166  and  _168
REMARK   55  A    between atoms: _168  and  _169
REMARK   56  A    between atoms: _168  and  _171
REMARK   57  A    between atoms: _171  and  _172
REMARK   58  A    between atoms: _175  and  _177
REMARK   59  A    between atoms: _177  and  _178
REMARK   60  A    between atoms: _177  and  _180
REMARK   61  A    between atoms: _180  and  _181
REMARK   62  A    between atoms: _182  and  ZN_386
REMARK   63  A    between atoms: _186  and  _188
REMARK   64  A    between atoms: _188  and  _189
REMARK   65  A    between atoms: _188  and  _191
REMARK   66  A    between atoms: _191  and  _192
REMARK   67  A    between atoms: _195  and  _197
REMARK   68  A    between atoms: _197  and  _198
REMARK   69  A    between atoms: _197  and  _200
REMARK   70  A    between atoms: _203  and  _205
REMARK   71  A    between atoms: _205  and  _206
REMARK   72  A    between atoms: _205  and  _208
REMARK   73  A    between atoms: _208  and  _209
REMARK   74  A    between atoms: _214  and  _216
REMARK   75  A    between atoms: _216  and  _217
REMARK   76  A    between atoms: _216  and  _219
REMARK   77  A    between atoms: _222  and  _224
REMARK   78  A    between atoms: _224  and  _225
REMARK   79  A    between atoms: _227  and  _229
REMARK   80  A    between atoms: _229  and  _230
REMARK   81  A    between atoms: _229  and  _232
REMARK   82  A    between atoms: _235  and  _237
REMARK   83  A    between atoms: _237  and  _238
REMARK   84  A    between atoms: _237  and  _240
REMARK   85  A    between atoms: _240  and  _241
REMARK   86  A    between atoms: _244  and  _246
REMARK   87  A    between atoms: _246  and  _247
REMARK   88  A    between atoms: _250  and  _252
REMARK   89  A    between atoms: _252  and  _253
REMARK   90  A    between atoms: _252  and  _255
REMARK   91  A    between atoms: _258  and  _260
REMARK   92  A    between atoms: _260  and  _261
REMARK   93  A    between atoms: _260  and  _263
REMARK   94  A    between atoms: _263  and  _264
REMARK   95  A    between atoms: _267  and  _269
REMARK   96  A    between atoms: _269  and  _270
REMARK   97  A    between atoms: _269  and  _272
REMARK   98  A    between atoms: _272  and  _273
REMARK   99  A    between atoms: _275  and  _277
REMARK  100  A    between atoms: _277  and  _278
REMARK  101  A    between atoms: _277  and  _280
REMARK  102  A    between atoms: _280  and  _281
REMARK  103  A    between atoms: _284  and  _286
REMARK  104  A    between atoms: _286  and  _287
REMARK  105  A    between atoms: _286  and  _289
REMARK  106  A    between atoms: _289  and  _290
REMARK  107  A    between atoms: _293  and  _295
REMARK  108  A    between atoms: _295  and  _296
REMARK  109  A    between atoms: _295  and  _298
REMARK  110  A    between atoms: _298  and  _299
REMARK  111  A    between atoms: _303  and  _304
REMARK  112  A    between atoms: _310  and  _311
REMARK  113  A    between atoms: _316  and  _318
REMARK  114  A    between atoms: _318  and  _319
REMARK  115  A    between atoms: _318  and  _321
REMARK  116  A    between atoms: _321  and  _322
REMARK  117  A    between atoms: _325  and  _327
REMARK  118  A    between atoms: _327  and  _328
REMARK  119  A    between atoms: _327  and  _330
REMARK  120  A    between atoms: _330  and  _331
REMARK  121  A    between atoms: _334  and  _336
REMARK  122  A    between atoms: _336  and  _337
REMARK  123  A    between atoms: _336  and  _339
REMARK  124  A    between atoms: _342  and  _344
REMARK  125  A    between atoms: _344  and  _345
REMARK  126  A    between atoms: _344  and  _347
REMARK  127  A    between atoms: _347  and  _348
REMARK  128  A    between atoms: _358  and  _360
REMARK  129  A    between atoms: _360  and  _361
REMARK  130  A    between atoms: _360  and  _363
REMARK  131  A    between atoms: _363  and  _364
REMARK  132  A    between atoms: _369  and  _371
REMARK  133  A    between atoms: _371  and  _372
REMARK  134  A    between atoms: _371  and  _374
REMARK  135  A    between atoms: _374  and  _375
REMARK  136  A    between atoms: _375  and  _376
REMARK  137  A    between atoms: _376  and  _377
REMARK                            x       y       z     vdW  Elec       q    Type
REMARK                         _______ _______ _______ _____ _____    ______ ____
ROOT
ATOM      1  O   HOH     1       5.387   7.202  20.140  0.00  0.00    +0.000 OA
ENDROOT
TORSDOF 0
REMARK  Name = ../refined-set-2016/1g4o/1g4o_pocket.pdb
REMARK  137 active torsions:
REMARK  status: ('A' for Active; 'I' for Inactive)
REMARK    1  A    between atoms: _1  and  _3
REMARK    2  A    between atoms: _3  and  _4
REMARK    3  A    between atoms: _3  and  _6
REMARK    4  A    between atoms: _6  and  _7
REMARK    5  A    between atoms: _17  and  _19
REMARK    6  A    between atoms: _19  and  _20
REMARK    7  A    between atoms: _19  and  _22
REMARK    8  A    between atoms: _22  and  _23
REMARK    9  A    between atoms: _28  and  _29
REMARK   10  A    between atoms: _31  and  _33
REMARK   11  A    between atoms: _33  and  _34
REMARK   12  A    between atoms: _33  and  _36
REMARK   13  A    between atoms: _36  and  _37
REMARK   14  A    between atoms: _40  and  _41
REMARK   15  A    between atoms: _46  and  _48
REMARK   16  A    between atoms: _48  and  _49
REMARK   17  A    between atoms: _48  and  _51
REMARK   18  A    between atoms: _51  and  _52
REMARK   19  A    between atoms: _57  and  _59
REMARK   20  A    between atoms: _59  and  _60
REMARK   21  A    between atoms: _59  and  _62
REMARK   22  A    between atoms: _62  and  _63
REMARK   23  A    between atoms: _68  and  _70
REMARK   24  A    between atoms: _70  and  _71
REMARK   25  A    between atoms: _70  and  _73
REMARK   26  A    between atoms: _73  and  _74
REMARK   27  A    between atoms: _77  and  _79
REMARK   28  A    between atoms: _79  and  _80
REMARK   29  A    between atoms: _79  and  _82
REMARK   30  A    between atoms: _82  and  _83
REMARK   31  A    between atoms: _83  and  _84
REMARK   32  A    between atoms: _89  and  _91
REMARK   33  A    between atoms: _91  and  _92
REMARK   34  A    between atoms: _91  and  _94
REMARK   35  A    between atoms: _94  and  _95
REMARK   36  A    between atoms: _101  and  _103
REMARK   37  A    between atoms: _114  and  _117
REMARK   38  A    between atoms: _117  and  _118
REMARK   39  A    between atoms: _126  and  _127
REMARK   40  A    between atoms: _135  and  _137
REMARK   41  A    between atoms: _137  and  _138
REMARK   42  A    between atoms: _137  and  _140
REMARK   43  A    between atoms: _140  and  _141
REMARK   44  A    between atoms: _141  and  _142
REMARK   45  A    between atoms: _145  and  _147
REMARK   46  A    between atoms: _147  and  _148
REMARK   47  A    between atoms: _147  and  _150
REMARK   48  A    between atoms: _150  and  _151
REMARK   49  A    between atoms: _156  and  _158
REMARK   50  A    between atoms: _158  and  _159
REMARK   51  A    between atoms: _158  and  _161
REMARK   52  A    between atoms: _161  and  _162
REMARK   53  A    between atoms: _162  and  _163
REMARK   54  A    between atoms: _166  and  _168
REMARK   55  A    between atoms: _168  and  _169
REMARK   56  A    between atoms: _168  and  _171
REMARK   57  A    between atoms: _171  and  _172
REMARK   58  A    between atoms: _175  and  _177
REMARK   59  A    between atoms: _177  and  _178
REMARK   60  A    between atoms: _177  and  _180
REMARK   61  A    between atoms: _180  and  _181
REMARK   62  A    between atoms: _182  and  ZN_386
REMARK   63  A    between atoms: _186  and  _188
REMARK   64  A    between atoms: _188  and  _189
REMARK   65  A    between atoms: _188  and  _191
REMARK   66  A    between atoms: _191  and  _192
REMARK   67  A    between atoms: _195  and  _197
REMARK   68  A    between atoms: _197  and  _198
REMARK   69  A    between atoms: _197  and  _200
REMARK   70  A    between atoms: _203  and  _205
REMARK   71  A    between atoms: _205  and  _206
REMARK   72  A    between atoms: _205  and  _208
REMARK   73  A    between atoms: _208  and  _209
REMARK   74  A    between atoms: _214  and  _216
REMARK   75  A    between atoms: _216  and  _217
REMARK   76  A    between atoms: _216  and  _219
REMARK   77  A    between atoms: _222  and  _224
REMARK   78  A    between atoms: _224  and  _225
REMARK   79  A    between atoms: _227  and  _229
REMARK   80  A    between atoms: _229  and  _230
REMARK   81  A    between atoms: _229  and  _232
REMARK   82  A    between atoms: _235  and  _237
REMARK   83  A    between atoms: _237  and  _238
REMARK   84  A    between atoms: _237  and  _240
REMARK   85  A    between atoms: _240  and  _241
REMARK   86  A    between atoms: _244  and  _246
REMARK   87  A    between atoms: _246  and  _247
REMARK   88  A    between atoms: _250  and  _252
REMARK   89  A    between atoms: _252  and  _253
REMARK   90  A    between atoms: _252  and  _255
REMARK   91  A    between atoms: _258  and  _260
REMARK   92  A    between atoms: _260  and  _261
REMARK   93  A    between atoms: _260  and  _263
REMARK   94  A    between atoms: _263  and  _264
REMARK   95  A    between atoms: _267  and  _269
REMARK   96  A    between atoms: _269  and  _270
REMARK   97  A    between atoms: _269  and  _272
REMARK   98  A    between atoms: _272  and  _273
REMARK   99  A    between atoms: _275  and  _277
REMARK  100  A    between atoms: _277  and  _278
REMARK  101  A    between atoms: _277  and  _280
REMARK  102  A    between atoms: _280  and  _281
REMARK  103  A    between atoms: _284  and  _286
REMARK  104  A    between atoms: _286  and  _287
REMARK  105  A    between atoms: _286  and  _289
REMARK  106  A    between atoms: _289  and  _290
REMARK  107  A    between atoms: _293  and  _295
REMARK  108  A    between atoms: _295  and  _296
REMARK  109  A    between atoms: _295  and  _298
REMARK  110  A    between atoms: _298  and  _299
REMARK  111  A    between atoms: _303  and  _304
REMARK  112  A    between atoms: _310  and  _311
REMARK  113  A    between atoms: _316  and  _318
REMARK  114  A    between atoms: _318  and  _319
REMARK  115  A    between atoms: _318  and  _321
REMARK  116  A    between atoms: _321  and  _322
REMARK  117  A    between atoms: _325  and  _327
REMARK  118  A    between atoms: _327  and  _328
REMARK  119  A    between atoms: _327  and  _330
REMARK  120  A    between atoms: _330  and  _331
REMARK  121  A    between atoms: _334  and  _336
REMARK  122  A    between atoms: _336  and  _337
REMARK  123  A    between atoms: _336  and  _339
REMARK  124  A    between atoms: _342  and  _344
REMARK  125  A    between atoms: _344  and  _345
REMARK  126  A    between atoms: _344  and  _347
REMARK  127  A    between atoms: _347  and  _348
REMARK  128  A    between atoms: _358  and  _360
REMARK  129  A    between atoms: _360  and  _361
REMARK  130  A    between atoms: _360  and  _363
REMARK  131  A    between atoms: _363  and  _364
REMARK  132  A    between atoms: _369  and  _371
REMARK  133  A    between atoms: _371  and  _372
REMARK  134  A    between atoms: _371  and  _374
REMARK  135  A    between atoms: _374  and  _375
REMARK  136  A    between atoms: _375  and  _376
REMARK  137  A    between atoms: _376  and  _377
REMARK                            x       y       z     vdW  Elec       q    Type
REMARK                         _______ _______ _______ _____ _____    ______ ____
ROOT
ATOM      1  O   HOH     1      -3.193   8.315  21.316  0.00  0.00    +0.000 OA
ENDROOT
TORSDOF 0
REMARK  Name = ../refined-set-2016/1g4o/1g4o_pocket.pdb
REMARK  137 active torsions:
REMARK  status: ('A' for Active; 'I' for Inactive)
REMARK    1  A    between atoms: _1  and  _3
REMARK    2  A    between atoms: _3  and  _4
REMARK    3  A    between atoms: _3  and  _6
REMARK    4  A    between atoms: _6  and  _7
REMARK    5  A    between atoms: _17  and  _19
REMARK    6  A    between atoms: _19  and  _20
REMARK    7  A    between atoms: _19  and  _22
REMARK    8  A    between atoms: _22  and  _23
REMARK    9  A    between atoms: _28  and  _29
REMARK   10  A    between atoms: _31  and  _33
REMARK   11  A    between atoms: _33  and  _34
REMARK   12  A    between atoms: _33  and  _36
REMARK   13  A    between atoms: _36  and  _37
REMARK   14  A    between atoms: _40  and  _41
REMARK   15  A    between atoms: _46  and  _48
REMARK   16  A    between atoms: _48  and  _49
REMARK   17  A    between atoms: _48  and  _51
REMARK   18  A    between atoms: _51  and  _52
REMARK   19  A    between atoms: _57  and  _59
REMARK   20  A    between atoms: _59  and  _60
REMARK   21  A    between atoms: _59  and  _62
REMARK   22  A    between atoms: _62  and  _63
REMARK   23  A    between atoms: _68  and  _70
REMARK   24  A    between atoms: _70  and  _71
REMARK   25  A    between atoms: _70  and  _73
REMARK   26  A    between atoms: _73  and  _74
REMARK   27  A    between atoms: _77  and  _79
REMARK   28  A    between atoms: _79  and  _80
REMARK   29  A    between atoms: _79  and  _82
REMARK   30  A    between atoms: _82  and  _83
REMARK   31  A    between atoms: _83  and  _84
REMARK   32  A    between atoms: _89  and  _91
REMARK   33  A    between atoms: _91  and  _92
REMARK   34  A    between atoms: _91  and  _94
REMARK   35  A    between atoms: _94  and  _95
REMARK   36  A    between atoms: _101  and  _103
REMARK   37  A    between atoms: _114  and  _117
REMARK   38  A    between atoms: _117  and  _118
REMARK   39  A    between atoms: _126  and  _127
REMARK   40  A    between atoms: _135  and  _137
REMARK   41  A    between atoms: _137  and  _138
REMARK   42  A    between atoms: _137  and  _140
REMARK   43  A    between atoms: _140  and  _141
REMARK   44  A    between atoms: _141  and  _142
REMARK   45  A    between atoms: _145  and  _147
REMARK   46  A    between atoms: _147  and  _148
REMARK   47  A    between atoms: _147  and  _150
REMARK   48  A    between atoms: _150  and  _151
REMARK   49  A    between atoms: _156  and  _158
REMARK   50  A    between atoms: _158  and  _159
REMARK   51  A    between atoms: _158  and  _161
REMARK   52  A    between atoms: _161  and  _162
REMARK   53  A    between atoms: _162  and  _163
REMARK   54  A    between atoms: _166  and  _168
REMARK   55  A    between atoms: _168  and  _169
REMARK   56  A    between atoms: _168  and  _171
REMARK   57  A    between atoms: _171  and  _172
REMARK   58  A    between atoms: _175  and  _177
REMARK   59  A    between atoms: _177  and  _178
REMARK   60  A    between atoms: _177  and  _180
REMARK   61  A    between atoms: _180  and  _181
REMARK   62  A    between atoms: _182  and  ZN_386
REMARK   63  A    between atoms: _186  and  _188
REMARK   64  A    between atoms: _188  and  _189
REMARK   65  A    between atoms: _188  and  _191
REMARK   66  A    between atoms: _191  and  _192
REMARK   67  A    between atoms: _195  and  _197
REMARK   68  A    between atoms: _197  and  _198
REMARK   69  A    between atoms: _197  and  _200
REMARK   70  A    between atoms: _203  and  _205
REMARK   71  A    between atoms: _205  and  _206
REMARK   72  A    between atoms: _205  and  _208
REMARK   73  A    between atoms: _208  and  _209
REMARK   74  A    between atoms: _214  and  _216
REMARK   75  A    between atoms: _216  and  _217
REMARK   76  A    between atoms: _216  and  _219
REMARK   77  A    between atoms: _222  and  _224
REMARK   78  A    between atoms: _224  and  _225
REMARK   79  A    between atoms: _227  and  _229
REMARK   80  A    between atoms: _229  and  _230
REMARK   81  A    between atoms: _229  and  _232
REMARK   82  A    between atoms: _235  and  _237
REMARK   83  A    between atoms: _237  and  _238
REMARK   84  A    between atoms: _237  and  _240
REMARK   85  A    between atoms: _240  and  _241
REMARK   86  A    between atoms: _244  and  _246
REMARK   87  A    between atoms: _246  and  _247
REMARK   88  A    between atoms: _250  and  _252
REMARK   89  A    between atoms: _252  and  _253
REMARK   90  A    between atoms: _252  and  _255
REMARK   91  A    between atoms: _258  and  _260
REMARK   92  A    between atoms: _260  and  _261
REMARK   93  A    between atoms: _260  and  _263
REMARK   94  A    between atoms: _263  and  _264
REMARK   95  A    between atoms: _267  and  _269
REMARK   96  A    between atoms: _269  and  _270
REMARK   97  A    between atoms: _269  and  _272
REMARK   98  A    between atoms: _272  and  _273
REMARK   99  A    between atoms: _275  and  _277
REMARK  100  A    between atoms: _277  and  _278
REMARK  101  A    between atoms: _277  and  _280
REMARK  102  A    between atoms: _280  and  _281
REMARK  103  A    between atoms: _284  and  _286
REMARK  104  A    between atoms: _286  and  _287
REMARK  105  A    between atoms: _286  and  _289
REMARK  106  A    between atoms: _289  and  _290
REMARK  107  A    between atoms: _293  and  _295
REMARK  108  A    between atoms: _295  and  _296
REMARK  109  A    between atoms: _295  and  _298
REMARK  110  A    between atoms: _298  and  _299
REMARK  111  A    between atoms: _303  and  _304
REMARK  112  A    between atoms: _310  and  _311
REMARK  113  A    between atoms: _316  and  _318
REMARK  114  A    between atoms: _318  and  _319
REMARK  115  A    between atoms: _318  and  _321
REMARK  116  A    between atoms: _321  and  _322
REMARK  117  A    between atoms: _325  and  _327
REMARK  118  A    between atoms: _327  and  _328
REMARK  119  A    between atoms: _327  and  _330
REMARK  120  A    between atoms: _330  and  _331
REMARK  121  A    between atoms: _334  and  _336
REMARK  122  A    between atoms: _336  and  _337
REMARK  123  A    between atoms: _336  and  _339
REMARK  124  A    between atoms: _342  and  _344
REMARK  125  A    between atoms: _344  and  _345
REMARK  126  A    between atoms: _344  and  _347
REMARK  127  A    between atoms: _347  and  _348
REMARK  128  A    between atoms: _358  and  _360
REMARK  129  A    between atoms: _360  and  _361
REMARK  130  A    between atoms: _360  and  _363
REMARK  131  A    between atoms: _363  and  _364
REMARK  132  A    between atoms: _369  and  _371
REMARK  133  A    between atoms: _371  and  _372
REMARK  134  A    between atoms: _371  and  _374
REMARK  135  A    between atoms: _374  and  _375
REMARK  136  A    between atoms: _375  and  _376
REMARK  137  A    between atoms: _376  and  _377
REMARK                            x       y       z     vdW  Elec       q    Type
REMARK                         _______ _______ _______ _____ _____    ______ ____
ROOT
ATOM      1  O   HOH     1      -1.491  -3.874  15.841  0.00  0.00    +0.000 OA
ENDROOT
TORSDOF 0
REMARK  Name = ../refined-set-2016/1g4o/1g4o_pocket.pdb
REMARK  137 active torsions:
REMARK  status: ('A' for Active; 'I' for Inactive)
REMARK    1  A    between atoms: _1  and  _3
REMARK    2  A    between atoms: _3  and  _4
REMARK    3  A    between atoms: _3  and  _6
REMARK    4  A    between atoms: _6  and  _7
REMARK    5  A    between atoms: _17  and  _19
REMARK    6  A    between atoms: _19  and  _20
REMARK    7  A    between atoms: _19  and  _22
REMARK    8  A    between atoms: _22  and  _23
REMARK    9  A    between atoms: _28  and  _29
REMARK   10  A    between atoms: _31  and  _33
REMARK   11  A    between atoms: _33  and  _34
REMARK   12  A    between atoms: _33  and  _36
REMARK   13  A    between atoms: _36  and  _37
REMARK   14  A    between atoms: _40  and  _41
REMARK   15  A    between atoms: _46  and  _48
REMARK   16  A    between atoms: _48  and  _49
REMARK   17  A    between atoms: _48  and  _51
REMARK   18  A    between atoms: _51  and  _52
REMARK   19  A    between atoms: _57  and  _59
REMARK   20  A    between atoms: _59  and  _60
REMARK   21  A    between atoms: _59  and  _62
REMARK   22  A    between atoms: _62  and  _63
REMARK   23  A    between atoms: _68  and  _70
REMARK   24  A    between atoms: _70  and  _71
REMARK   25  A    between atoms: _70  and  _73
REMARK   26  A    between atoms: _73  and  _74
REMARK   27  A    between atoms: _77  and  _79
REMARK   28  A    between atoms: _79  and  _80
REMARK   29  A    between atoms: _79  and  _82
REMARK   30  A    between atoms: _82  and  _83
REMARK   31  A    between atoms: _83  and  _84
REMARK   32  A    between atoms: _89  and  _91
REMARK   33  A    between atoms: _91  and  _92
REMARK   34  A    between atoms: _91  and  _94
REMARK   35  A    between atoms: _94  and  _95
REMARK   36  A    between atoms: _101  and  _103
REMARK   37  A    between atoms: _114  and  _117
REMARK   38  A    between atoms: _117  and  _118
REMARK   39  A    between atoms: _126  and  _127
REMARK   40  A    between atoms: _135  and  _137
REMARK   41  A    between atoms: _137  and  _138
REMARK   42  A    between atoms: _137  and  _140
REMARK   43  A    between atoms: _140  and  _141
REMARK   44  A    between atoms: _141  and  _142
REMARK   45  A    between atoms: _145  and  _147
REMARK   46  A    between atoms: _147  and  _148
REMARK   47  A    between atoms: _147  and  _150
REMARK   48  A    between atoms: _150  and  _151
REMARK   49  A    between atoms: _156  and  _158
REMARK   50  A    between atoms: _158  and  _159
REMARK   51  A    between atoms: _158  and  _161
REMARK   52  A    between atoms: _161  and  _162
REMARK   53  A    between atoms: _162  and  _163
REMARK   54  A    between atoms: _166  and  _168
REMARK   55  A    between atoms: _168  and  _169
REMARK   56  A    between atoms: _168  and  _171
REMARK   57  A    between atoms: _171  and  _172
REMARK   58  A    between atoms: _175  and  _177
REMARK   59  A    between atoms: _177  and  _178
REMARK   60  A    between atoms: _177  and  _180
REMARK   61  A    between atoms: _180  and  _181
REMARK   62  A    between atoms: _182  and  ZN_386
REMARK   63  A    between atoms: _186  and  _188
REMARK   64  A    between atoms: _188  and  _189
REMARK   65  A    between atoms: _188  and  _191
REMARK   66  A    between atoms: _191  and  _192
REMARK   67  A    between atoms: _195  and  _197
REMARK   68  A    between atoms: _197  and  _198
REMARK   69  A    between atoms: _197  and  _200
REMARK   70  A    between atoms: _203  and  _205
REMARK   71  A    between atoms: _205  and  _206
REMARK   72  A    between atoms: _205  and  _208
REMARK   73  A    between atoms: _208  and  _209
REMARK   74  A    between atoms: _214  and  _216
REMARK   75  A    between atoms: _216  and  _217
REMARK   76  A    between atoms: _216  and  _219
REMARK   77  A    between atoms: _222  and  _224
REMARK   78  A    between atoms: _224  and  _225
REMARK   79  A    between atoms: _227  and  _229
REMARK   80  A    between atoms: _229  and  _230
REMARK   81  A    between atoms: _229  and  _232
REMARK   82  A    between atoms: _235  and  _237
REMARK   83  A    between atoms: _237  and  _238
REMARK   84  A    between atoms: _237  and  _240
REMARK   85  A    between atoms: _240  and  _241
REMARK   86  A    between atoms: _244  and  _246
REMARK   87  A    between atoms: _246  and  _247
REMARK   88  A    between atoms: _250  and  _252
REMARK   89  A    between atoms: _252  and  _253
REMARK   90  A    between atoms: _252  and  _255
REMARK   91  A    between atoms: _258  and  _260
REMARK   92  A    between atoms: _260  and  _261
REMARK   93  A    between atoms: _260  and  _263
REMARK   94  A    between atoms: _263  and  _264
REMARK   95  A    between atoms: _267  and  _269
REMARK   96  A    between atoms: _269  and  _270
REMARK   97  A    between atoms: _269  and  _272
REMARK   98  A    between atoms: _272  and  _273
REMARK   99  A    between atoms: _275  and  _277
REMARK  100  A    between atoms: _277  and  _278
REMARK  101  A    between atoms: _277  and  _280
REMARK  102  A    between atoms: _280  and  _281
REMARK  103  A    between atoms: _284  and  _286
REMARK  104  A    between atoms: _286  and  _287
REMARK  105  A    between atoms: _286  and  _289
REMARK  106  A    between atoms: _289  and  _290
REMARK  107  A    between atoms: _293  and  _295
REMARK  108  A    between atoms: _295  and  _296
REMARK  109  A    between atoms: _295  and  _298
REMARK  110  A    between atoms: _298  and  _299
REMARK  111  A    between atoms: _303  and  _304
REMARK  112  A    between atoms: _310  and  _311
REMARK  113  A    between atoms: _316  and  _318
REMARK  114  A    between atoms: _318  and  _319
REMARK  115  A    between atoms: _318  and  _321
REMARK  116  A    between atoms: _321  and  _322
REMARK  117  A    between atoms: _325  and  _327
REMARK  118  A    between atoms: _327  and  _328
REMARK  119  A    between atoms: _327  and  _330
REMARK  120  A    between atoms: _330  and  _331
REMARK  121  A    between atoms: _334  and  _336
REMARK  122  A    between atoms: _336  and  _337
REMARK  123  A    between atoms: _336  and  _339
REMARK  124  A    between atoms: _342  and  _344
REMARK  125  A    between atoms: _344  and  _345
REMARK  126  A    between atoms: _344  and  _347
REMARK  127  A    between atoms: _347  and  _348
REMARK  128  A    between atoms: _358  and  _360
REMARK  129  A    between atoms: _360  and  _361
REMARK  130  A    between atoms: _360  and  _363
REMARK  131  A    between atoms: _363  and  _364
REMARK  132  A    between atoms: _369  and  _371
REMARK  133  A    between atoms: _371  and  _372
REMARK  134  A    between atoms: _371  and  _374
REMARK  135  A    between atoms: _374  and  _375
REMARK  136  A    between atoms: _375  and  _376
REMARK  137  A    between atoms: _376  and  _377
REMARK                            x       y       z     vdW  Elec       q    Type
REMARK                         _______ _______ _______ _____ _____    ______ ____
ROOT
ATOM      1  O   HOH     1      -2.844  -3.403  11.607  0.00  0.00    +0.000 OA
ENDROOT
TORSDOF 0
REMARK  Name = ../refined-set-2016/1g4o/1g4o_pocket.pdb
REMARK  137 active torsions:
REMARK  status: ('A' for Active; 'I' for Inactive)
REMARK    1  A    between atoms: _1  and  _3
REMARK    2  A    between atoms: _3  and  _4
REMARK    3  A    between atoms: _3  and  _6
REMARK    4  A    between atoms: _6  and  _7
REMARK    5  A    between atoms: _17  and  _19
REMARK    6  A    between atoms: _19  and  _20
REMARK    7  A    between atoms: _19  and  _22
REMARK    8  A    between atoms: _22  and  _23
REMARK    9  A    between atoms: _28  and  _29
REMARK   10  A    between atoms: _31  and  _33
REMARK   11  A    between atoms: _33  and  _34
REMARK   12  A    between atoms: _33  and  _36
REMARK   13  A    between atoms: _36  and  _37
REMARK   14  A    between atoms: _40  and  _41
REMARK   15  A    between atoms: _46  and  _48
REMARK   16  A    between atoms: _48  and  _49
REMARK   17  A    between atoms: _48  and  _51
REMARK   18  A    between atoms: _51  and  _52
REMARK   19  A    between atoms: _57  and  _59
REMARK   20  A    between atoms: _59  and  _60
REMARK   21  A    between atoms: _59  and  _62
REMARK   22  A    between atoms: _62  and  _63
REMARK   23  A    between atoms: _68  and  _70
REMARK   24  A    between atoms: _70  and  _71
REMARK   25  A    between atoms: _70  and  _73
REMARK   26  A    between atoms: _73  and  _74
REMARK   27  A    between atoms: _77  and  _79
REMARK   28  A    between atoms: _79  and  _80
REMARK   29  A    between atoms: _79  and  _82
REMARK   30  A    between atoms: _82  and  _83
REMARK   31  A    between atoms: _83  and  _84
REMARK   32  A    between atoms: _89  and  _91
REMARK   33  A    between atoms: _91  and  _92
REMARK   34  A    between atoms: _91  and  _94
REMARK   35  A    between atoms: _94  and  _95
REMARK   36  A    between atoms: _101  and  _103
REMARK   37  A    between atoms: _114  and  _117
REMARK   38  A    between atoms: _117  and  _118
REMARK   39  A    between atoms: _126  and  _127
REMARK   40  A    between atoms: _135  and  _137
REMARK   41  A    between atoms: _137  and  _138
REMARK   42  A    between atoms: _137  and  _140
REMARK   43  A    between atoms: _140  and  _141
REMARK   44  A    between atoms: _141  and  _142
REMARK   45  A    between atoms: _145  and  _147
REMARK   46  A    between atoms: _147  and  _148
REMARK   47  A    between atoms: _147  and  _150
REMARK   48  A    between atoms: _150  and  _151
REMARK   49  A    between atoms: _156  and  _158
REMARK   50  A    between atoms: _158  and  _159
REMARK   51  A    between atoms: _158  and  _161
REMARK   52  A    between atoms: _161  and  _162
REMARK   53  A    between atoms: _162  and  _163
REMARK   54  A    between atoms: _166  and  _168
REMARK   55  A    between atoms: _168  and  _169
REMARK   56  A    between atoms: _168  and  _171
REMARK   57  A    between atoms: _171  and  _172
REMARK   58  A    between atoms: _175  and  _177
REMARK   59  A    between atoms: _177  and  _178
REMARK   60  A    between atoms: _177  and  _180
REMARK   61  A    between atoms: _180  and  _181
REMARK   62  A    between atoms: _182  and  ZN_386
REMARK   63  A    between atoms: _186  and  _188
REMARK   64  A    between atoms: _188  and  _189
REMARK   65  A    between atoms: _188  and  _191
REMARK   66  A    between atoms: _191  and  _192
REMARK   67  A    between atoms: _195  and  _197
REMARK   68  A    between atoms: _197  and  _198
REMARK   69  A    between atoms: _197  and  _200
REMARK   70  A    between atoms: _203  and  _205
REMARK   71  A    between atoms: _205  and  _206
REMARK   72  A    between atoms: _205  and  _208
REMARK   73  A    between atoms: _208  and  _209
REMARK   74  A    between atoms: _214  and  _216
REMARK   75  A    between atoms: _216  and  _217
REMARK   76  A    between atoms: _216  and  _219
REMARK   77  A    between atoms: _222  and  _224
REMARK   78  A    between atoms: _224  and  _225
REMARK   79  A    between atoms: _227  and  _229
REMARK   80  A    between atoms: _229  and  _230
REMARK   81  A    between atoms: _229  and  _232
REMARK   82  A    between atoms: _235  and  _237
REMARK   83  A    between atoms: _237  and  _238
REMARK   84  A    between atoms: _237  and  _240
REMARK   85  A    between atoms: _240  and  _241
REMARK   86  A    between atoms: _244  and  _246
REMARK   87  A    between atoms: _246  and  _247
REMARK   88  A    between atoms: _250  and  _252
REMARK   89  A    between atoms: _252  and  _253
REMARK   90  A    between atoms: _252  and  _255
REMARK   91  A    between atoms: _258  and  _260
REMARK   92  A    between atoms: _260  and  _261
REMARK   93  A    between atoms: _260  and  _263
REMARK   94  A    between atoms: _263  and  _264
REMARK   95  A    between atoms: _267  and  _269
REMARK   96  A    between atoms: _269  and  _270
REMARK   97  A    between atoms: _269  and  _272
REMARK   98  A    between atoms: _272  and  _273
REMARK   99  A    between atoms: _275  and  _277
REMARK  100  A    between atoms: _277  and  _278
REMARK  101  A    between atoms: _277  and  _280
REMARK  102  A    between atoms: _280  and  _281
REMARK  103  A    between atoms: _284  and  _286
REMARK  104  A    between atoms: _286  and  _287
REMARK  105  A    between atoms: _286  and  _289
REMARK  106  A    between atoms: _289  and  _290
REMARK  107  A    between atoms: _293  and  _295
REMARK  108  A    between atoms: _295  and  _296
REMARK  109  A    between atoms: _295  and  _298
REMARK  110  A    between atoms: _298  and  _299
REMARK  111  A    between atoms: _303  and  _304
REMARK  112  A    between atoms: _310  and  _311
REMARK  113  A    between atoms: _316  and  _318
REMARK  114  A    between atoms: _318  and  _319
REMARK  115  A    between atoms: _318  and  _321
REMARK  116  A    between atoms: _321  and  _322
REMARK  117  A    between atoms: _325  and  _327
REMARK  118  A    between atoms: _327  and  _328
REMARK  119  A    between atoms: _327  and  _330
REMARK  120  A    between atoms: _330  and  _331
REMARK  121  A    between atoms: _334  and  _336
REMARK  122  A    between atoms: _336  and  _337
REMARK  123  A    between atoms: _336  and  _339
REMARK  124  A    between atoms: _342  and  _344
REMARK  125  A    between atoms: _344  and  _345
REMARK  126  A    between atoms: _344  and  _347
REMARK  127  A    between atoms: _347  and  _348
REMARK  128  A    between atoms: _358  and  _360
REMARK  129  A    between atoms: _360  and  _361
REMARK  130  A    between atoms: _360  and  _363
REMARK  131  A    between atoms: _363  and  _364
REMARK  132  A    between atoms: _369  and  _371
REMARK  133  A    between atoms: _371  and  _372
REMARK  134  A    between atoms: _371  and  _374
REMARK  135  A    between atoms: _374  and  _375
REMARK  136  A    between atoms: _375  and  _376
REMARK  137  A    between atoms: _376  and  _377
REMARK                            x       y       z     vdW  Elec       q    Type
REMARK                         _______ _______ _______ _____ _____    ______ ____
ROOT
ATOM      1  O   HOH     1       0.400  15.477  19.919  0.00  0.00    +0.000 OA
ENDROOT
TORSDOF 0
REMARK  Name = ../refined-set-2016/1g4o/1g4o_pocket.pdb
REMARK  137 active torsions:
REMARK  status: ('A' for Active; 'I' for Inactive)
REMARK    1  A    between atoms: _1  and  _3
REMARK    2  A    between atoms: _3  and  _4
REMARK    3  A    between atoms: _3  and  _6
REMARK    4  A    between atoms: _6  and  _7
REMARK    5  A    between atoms: _17  and  _19
REMARK    6  A    between atoms: _19  and  _20
REMARK    7  A    between atoms: _19  and  _22
REMARK    8  A    between atoms: _22  and  _23
REMARK    9  A    between atoms: _28  and  _29
REMARK   10  A    between atoms: _31  and  _33
REMARK   11  A    between atoms: _33  and  _34
REMARK   12  A    between atoms: _33  and  _36
REMARK   13  A    between atoms: _36  and  _37
REMARK   14  A    between atoms: _40  and  _41
REMARK   15  A    between atoms: _46  and  _48
REMARK   16  A    between atoms: _48  and  _49
REMARK   17  A    between atoms: _48  and  _51
REMARK   18  A    between atoms: _51  and  _52
REMARK   19  A    between atoms: _57  and  _59
REMARK   20  A    between atoms: _59  and  _60
REMARK   21  A    between atoms: _59  and  _62
REMARK   22  A    between atoms: _62  and  _63
REMARK   23  A    between atoms: _68  and  _70
REMARK   24  A    between atoms: _70  and  _71
REMARK   25  A    between atoms: _70  and  _73
REMARK   26  A    between atoms: _73  and  _74
REMARK   27  A    between atoms: _77  and  _79
REMARK   28  A    between atoms: _79  and  _80
REMARK   29  A    between atoms: _79  and  _82
REMARK   30  A    between atoms: _82  and  _83
REMARK   31  A    between atoms: _83  and  _84
REMARK   32  A    between atoms: _89  and  _91
REMARK   33  A    between atoms: _91  and  _92
REMARK   34  A    between atoms: _91  and  _94
REMARK   35  A    between atoms: _94  and  _95
REMARK   36  A    between atoms: _101  and  _103
REMARK   37  A    between atoms: _114  and  _117
REMARK   38  A    between atoms: _117  and  _118
REMARK   39  A    between atoms: _126  and  _127
REMARK   40  A    between atoms: _135  and  _137
REMARK   41  A    between atoms: _137  and  _138
REMARK   42  A    between atoms: _137  and  _140
REMARK   43  A    between atoms: _140  and  _141
REMARK   44  A    between atoms: _141  and  _142
REMARK   45  A    between atoms: _145  and  _147
REMARK   46  A    between atoms: _147  and  _148
REMARK   47  A    between atoms: _147  and  _150
REMARK   48  A    between atoms: _150  and  _151
REMARK   49  A    between atoms: _156  and  _158
REMARK   50  A    between atoms: _158  and  _159
REMARK   51  A    between atoms: _158  and  _161
REMARK   52  A    between atoms: _161  and  _162
REMARK   53  A    between atoms: _162  and  _163
REMARK   54  A    between atoms: _166  and  _168
REMARK   55  A    between atoms: _168  and  _169
REMARK   56  A    between atoms: _168  and  _171
REMARK   57  A    between atoms: _171  and  _172
REMARK   58  A    between atoms: _175  and  _177
REMARK   59  A    between atoms: _177  and  _178
REMARK   60  A    between atoms: _177  and  _180
REMARK   61  A    between atoms: _180  and  _181
REMARK   62  A    between atoms: _182  and  ZN_386
REMARK   63  A    between atoms: _186  and  _188
REMARK   64  A    between atoms: _188  and  _189
REMARK   65  A    between atoms: _188  and  _191
REMARK   66  A    between atoms: _191  and  _192
REMARK   67  A    between atoms: _195  and  _197
REMARK   68  A    between atoms: _197  and  _198
REMARK   69  A    between atoms: _197  and  _200
REMARK   70  A    between atoms: _203  and  _205
REMARK   71  A    between atoms: _205  and  _206
REMARK   72  A    between atoms: _205  and  _208
REMARK   73  A    between atoms: _208  and  _209
REMARK   74  A    between atoms: _214  and  _216
REMARK   75  A    between atoms: _216  and  _217
REMARK   76  A    between atoms: _216  and  _219
REMARK   77  A    between atoms: _222  and  _224
REMARK   78  A    between atoms: _224  and  _225
REMARK   79  A    between atoms: _227  and  _229
REMARK   80  A    between atoms: _229  and  _230
REMARK   81  A    between atoms: _229  and  _232
REMARK   82  A    between atoms: _235  and  _237
REMARK   83  A    between atoms: _237  and  _238
REMARK   84  A    between atoms: _237  and  _240
REMARK   85  A    between atoms: _240  and  _241
REMARK   86  A    between atoms: _244  and  _246
REMARK   87  A    between atoms: _246  and  _247
REMARK   88  A    between atoms: _250  and  _252
REMARK   89  A    between atoms: _252  and  _253
REMARK   90  A    between atoms: _252  and  _255
REMARK   91  A    between atoms: _258  and  _260
REMARK   92  A    between atoms: _260  and  _261
REMARK   93  A    between atoms: _260  and  _263
REMARK   94  A    between atoms: _263  and  _264
REMARK   95  A    between atoms: _267  and  _269
REMARK   96  A    between atoms: _269  and  _270
REMARK   97  A    between atoms: _269  and  _272
REMARK   98  A    between atoms: _272  and  _273
REMARK   99  A    between atoms: _275  and  _277
REMARK  100  A    between atoms: _277  and  _278
REMARK  101  A    between atoms: _277  and  _280
REMARK  102  A    between atoms: _280  and  _281
REMARK  103  A    between atoms: _284  and  _286
REMARK  104  A    between atoms: _286  and  _287
REMARK  105  A    between atoms: _286  and  _289
REMARK  106  A    between atoms: _289  and  _290
REMARK  107  A    between atoms: _293  and  _295
REMARK  108  A    between atoms: _295  and  _296
REMARK  109  A    between atoms: _295  and  _298
REMARK  110  A    between atoms: _298  and  _299
REMARK  111  A    between atoms: _303  and  _304
REMARK  112  A    between atoms: _310  and  _311
REMARK  113  A    between atoms: _316  and  _318
REMARK  114  A    between atoms: _318  and  _319
REMARK  115  A    between atoms: _318  and  _321
REMARK  116  A    between atoms: _321  and  _322
REMARK  117  A    between atoms: _325  and  _327
REMARK  118  A    between atoms: _327  and  _328
REMARK  119  A    between atoms: _327  and  _330
REMARK  120  A    between atoms: _330  and  _331
REMARK  121  A    between atoms: _334  and  _336
REMARK  122  A    between atoms: _336  and  _337
REMARK  123  A    between atoms: _336  and  _339
REMARK  124  A    between atoms: _342  and  _344
REMARK  125  A    between atoms: _344  and  _345
REMARK  126  A    between atoms: _344  and  _347
REMARK  127  A    between atoms: _347  and  _348
REMARK  128  A    between atoms: _358  and  _360
REMARK  129  A    between atoms: _360  and  _361
REMARK  130  A    between atoms: _360  and  _363
REMARK  131  A    between atoms: _363  and  _364
REMARK  132  A    between atoms: _369  and  _371
REMARK  133  A    between atoms: _371  and  _372
REMARK  134  A    between atoms: _371  and  _374
REMARK  135  A    between atoms: _374  and  _375
REMARK  136  A    between atoms: _375  and  _376
REMARK  137  A    between atoms: _376  and  _377
REMARK                            x       y       z     vdW  Elec       q    Type
REMARK                         _______ _______ _______ _____ _____    ______ ____
ROOT
ATOM      1  O   HOH     1      -4.417   4.376  10.337  0.00  0.00    +0.000 OA
ENDROOT
TORSDOF 0
