REMARK  Name = ../refined-set-2016/4b7p/4b7p_pocket.pdb
REMARK  215 active torsions:
REMARK  status: ('A' for Active; 'I' for Inactive)
REMARK    1  A    between atoms: _1  and  _3
REMARK    2  A    between atoms: _3  and  _4
REMARK    3  A    between atoms: _3  and  _6
REMARK    4  A    between atoms: _6  and  _7
REMARK    5  A    between atoms: _10  and  _12
REMARK    6  A    between atoms: _12  and  _13
REMARK    7  A    between atoms: _12  and  _15
REMARK    8  A    between atoms: _15  and  _16
REMARK    9  A    between atoms: _22  and  _24
REMARK   10  A    between atoms: _24  and  _25
REMARK   11  A    between atoms: _24  and  _27
REMARK   12  A    between atoms: _27  and  _28
REMARK   13  A    between atoms: _31  and  _33
REMARK   14  A    between atoms: _33  and  _34
REMARK   15  A    between atoms: _33  and  _36
REMARK   16  A    between atoms: _36  and  _37
REMARK   17  A    between atoms: _37  and  _38
REMARK   18  A    between atoms: _41  and  _43
REMARK   19  A    between atoms: _43  and  _44
REMARK   20  A    between atoms: _43  and  _46
REMARK   21  A    between atoms: _46  and  _47
REMARK   22  A    between atoms: _50  and  _52
REMARK   23  A    between atoms: _52  and  _53
REMARK   24  A    between atoms: _52  and  _55
REMARK   25  A    between atoms: _55  and  _56
REMARK   26  A    between atoms: _59  and  _61
REMARK   27  A    between atoms: _61  and  _62
REMARK   28  A    between atoms: _61  and  _64
REMARK   29  A    between atoms: _64  and  _65
REMARK   30  A    between atoms: _67  and  _69
REMARK   31  A    between atoms: _69  and  _70
REMARK   32  A    between atoms: _69  and  _72
REMARK   33  A    between atoms: _72  and  _73
REMARK   34  A    between atoms: _78  and  _80
REMARK   35  A    between atoms: _80  and  _81
REMARK   36  A    between atoms: _80  and  _83
REMARK   37  A    between atoms: _83  and  _84
REMARK   38  A    between atoms: _86  and  _88
REMARK   39  A    between atoms: _88  and  _89
REMARK   40  A    between atoms: _88  and  _91
REMARK   41  A    between atoms: _91  and  _92
REMARK   42  A    between atoms: _94  and  _96
REMARK   43  A    between atoms: _96  and  _97
REMARK   44  A    between atoms: _96  and  _99
REMARK   45  A    between atoms: _99  and  _100
REMARK   46  A    between atoms: _103  and  _105
REMARK   47  A    between atoms: _105  and  _106
REMARK   48  A    between atoms: _109  and  _111
REMARK   49  A    between atoms: _111  and  _112
REMARK   50  A    between atoms: _111  and  _114
REMARK   51  A    between atoms: _114  and  _115
REMARK   52  A    between atoms: _118  and  _120
REMARK   53  A    between atoms: _120  and  _121
REMARK   54  A    between atoms: _120  and  _123
REMARK   55  A    between atoms: _123  and  _124
REMARK   56  A    between atoms: _127  and  _129
REMARK   57  A    between atoms: _129  and  _130
REMARK   58  A    between atoms: _129  and  _132
REMARK   59  A    between atoms: _132  and  _133
REMARK   60  A    between atoms: _133  and  _134
REMARK   61  A    between atoms: _134  and  _135
REMARK   62  A    between atoms: _135  and  _136
REMARK   63  A    between atoms: _140  and  _142
REMARK   64  A    between atoms: _142  and  _143
REMARK   65  A    between atoms: _142  and  _145
REMARK   66  A    between atoms: _145  and  _146
REMARK   67  A    between atoms: _149  and  _151
REMARK   68  A    between atoms: _151  and  _152
REMARK   69  A    between atoms: _151  and  _154
REMARK   70  A    between atoms: _154  and  _155
REMARK   71  A    between atoms: _155  and  _156
REMARK   72  A    between atoms: _159  and  _161
REMARK   73  A    between atoms: _161  and  _162
REMARK   74  A    between atoms: _161  and  _164
REMARK   75  A    between atoms: _164  and  _165
REMARK   76  A    between atoms: _168  and  _170
REMARK   77  A    between atoms: _170  and  _171
REMARK   78  A    between atoms: _170  and  _173
REMARK   79  A    between atoms: _176  and  _178
REMARK   80  A    between atoms: _178  and  _179
REMARK   81  A    between atoms: _178  and  _181
REMARK   82  A    between atoms: _181  and  _182
REMARK   83  A    between atoms: _185  and  _187
REMARK   84  A    between atoms: _187  and  _188
REMARK   85  A    between atoms: _187  and  _190
REMARK   86  A    between atoms: _190  and  _191
REMARK   87  A    between atoms: _194  and  _196
REMARK   88  A    between atoms: _196  and  _197
REMARK   89  A    between atoms: _199  and  _201
REMARK   90  A    between atoms: _201  and  _202
REMARK   91  A    between atoms: _201  and  _204
REMARK   92  A    between atoms: _204  and  _205
REMARK   93  A    between atoms: _208  and  _210
REMARK   94  A    between atoms: _210  and  _211
REMARK   95  A    between atoms: _213  and  _215
REMARK   96  A    between atoms: _215  and  _216
REMARK   97  A    between atoms: _215  and  _218
REMARK   98  A    between atoms: _218  and  _219
REMARK   99  A    between atoms: _219  and  _220
REMARK  100  A    between atoms: _222  and  _224
REMARK  101  A    between atoms: _224  and  _225
REMARK  102  A    between atoms: _224  and  _227
REMARK  103  A    between atoms: _227  and  _228
REMARK  104  A    between atoms: _231  and  _233
REMARK  105  A    between atoms: _233  and  _234
REMARK  106  A    between atoms: _237  and  _239
REMARK  107  A    between atoms: _239  and  _240
REMARK  108  A    between atoms: _239  and  _242
REMARK  109  A    between atoms: _242  and  _243
REMARK  110  A    between atoms: _246  and  _248
REMARK  111  A    between atoms: _248  and  _249
REMARK  112  A    between atoms: _248  and  _251
REMARK  113  A    between atoms: _251  and  _252
REMARK  114  A    between atoms: _255  and  _257
REMARK  115  A    between atoms: _257  and  _258
REMARK  116  A    between atoms: _257  and  _260
REMARK  117  A    between atoms: _260  and  _261
REMARK  118  A    between atoms: _266  and  _268
REMARK  119  A    between atoms: _268  and  _269
REMARK  120  A    between atoms: _268  and  _271
REMARK  121  A    between atoms: _271  and  _272
REMARK  122  A    between atoms: _277  and  _279
REMARK  123  A    between atoms: _279  and  _280
REMARK  124  A    between atoms: _279  and  _282
REMARK  125  A    between atoms: _282  and  _283
REMARK  126  A    between atoms: _286  and  _288
REMARK  127  A    between atoms: _288  and  _289
REMARK  128  A    between atoms: _291  and  _293
REMARK  129  A    between atoms: _293  and  _294
REMARK  130  A    between atoms: _293  and  _296
REMARK  131  A    between atoms: _296  and  _297
REMARK  132  A    between atoms: _300  and  _302
REMARK  133  A    between atoms: _302  and  _303
REMARK  134  A    between atoms: _302  and  _305
REMARK  135  A    between atoms: _305  and  _306
REMARK  136  A    between atoms: _306  and  _307
REMARK  137  A    between atoms: _307  and  _308
REMARK  138  A    between atoms: _308  and  _309
REMARK  139  A    between atoms: _313  and  _315
REMARK  140  A    between atoms: _315  and  _316
REMARK  141  A    between atoms: _318  and  _320
REMARK  142  A    between atoms: _320  and  _321
REMARK  143  A    between atoms: _320  and  _323
REMARK  144  A    between atoms: _323  and  _324
REMARK  145  A    between atoms: _330  and  _332
REMARK  146  A    between atoms: _332  and  _333
REMARK  147  A    between atoms: _335  and  _337
REMARK  148  A    between atoms: _337  and  _338
REMARK  149  A    between atoms: _337  and  _340
REMARK  150  A    between atoms: _343  and  _345
REMARK  151  A    between atoms: _345  and  _346
REMARK  152  A    between atoms: _348  and  _350
REMARK  153  A    between atoms: _350  and  _351
REMARK  154  A    between atoms: _350  and  _353
REMARK  155  A    between atoms: _353  and  _354
REMARK  156  A    between atoms: _360  and  _362
REMARK  157  A    between atoms: _362  and  _363
REMARK  158  A    between atoms: _362  and  _365
REMARK  159  A    between atoms: _365  and  _366
REMARK  160  A    between atoms: _371  and  _372
REMARK  161  A    between atoms: _374  and  _376
REMARK  162  A    between atoms: _376  and  _377
REMARK  163  A    between atoms: _376  and  _379
REMARK  164  A    between atoms: _379  and  _380
REMARK  165  A    between atoms: _382  and  _384
REMARK  166  A    between atoms: _384  and  _385
REMARK  167  A    between atoms: _388  and  _390
REMARK  168  A    between atoms: _390  and  _391
REMARK  169  A    between atoms: _390  and  _393
REMARK  170  A    between atoms: _396  and  _398
REMARK  171  A    between atoms: _398  and  _399
REMARK  172  A    between atoms: _398  and  _401
REMARK  173  A    between atoms: _404  and  _406
REMARK  174  A    between atoms: _406  and  _407
REMARK  175  A    between atoms: _406  and  _409
REMARK  176  A    between atoms: _409  and  _410
REMARK  177  A    between atoms: _413  and  _415
REMARK  178  A    between atoms: _415  and  _416
REMARK  179  A    between atoms: _415  and  _418
REMARK  180  A    between atoms: _418  and  _419
REMARK  181  A    between atoms: _422  and  _424
REMARK  182  A    between atoms: _424  and  _425
REMARK  183  A    between atoms: _424  and  _427
REMARK  184  A    between atoms: _427  and  _428
REMARK  185  A    between atoms: _428  and  _429
REMARK  186  A    between atoms: _429  and  _430
REMARK  187  A    between atoms: _430  and  _431
REMARK  188  A    between atoms: _435  and  _437
REMARK  189  A    between atoms: _437  and  _438
REMARK  190  A    between atoms: _437  and  _440
REMARK  191  A    between atoms: _440  and  _441
REMARK  192  A    between atoms: _446  and  _448
REMARK  193  A    between atoms: _448  and  _449
REMARK  194  A    between atoms: _448  and  _451
REMARK  195  A    between atoms: _451  and  _452
REMARK  196  A    between atoms: _457  and  _459
REMARK  197  A    between atoms: _459  and  _460
REMARK  198  A    between atoms: _459  and  _462
REMARK  199  A    between atoms: _462  and  _463
REMARK  200  A    between atoms: _466  and  _468
REMARK  201  A    between atoms: _468  and  _469
REMARK  202  A    between atoms: _471  and  _473
REMARK  203  A    between atoms: _473  and  _474
REMARK  204  A    between atoms: _473  and  _476
REMARK  205  A    between atoms: _476  and  _477
REMARK  206  A    between atoms: _480  and  _482
REMARK  207  A    between atoms: _482  and  _483
REMARK  208  A    between atoms: _482  and  _485
REMARK  209  A    between atoms: _485  and  _486
REMARK  210  A    between atoms: _486  and  _487
REMARK  211  A    between atoms: _487  and  _488
REMARK  212  A    between atoms: _488  and  _489
REMARK  213  A    between atoms: _493  and  _495
REMARK  214  A    between atoms: _495  and  _496
REMARK  215  A    between atoms: _495  and  _498
REMARK                            x       y       z     vdW  Elec       q    Type
REMARK                         _______ _______ _______ _____ _____    ______ ____
ROOT
ATOM      1  CA  ILE A   1       3.788 -13.020   6.161  0.00  0.00    +0.133 C 
ENDROOT
BRANCH   1   2
ATOM      2  N   ILE A   1       2.789 -13.919   5.597  0.00  0.00    -0.239 NA
ATOM      3  H   ILE A   1       1.816 -13.934   5.963  0.00  0.00    +0.142 HD
ENDBRANCH   1   2
BRANCH   1   4
ATOM      4  CB  ILE A   1       3.180 -12.067   7.167  0.00  0.00    +0.023 C 
ATOM      5  CG2 ILE A   1       4.306 -11.311   7.920  0.00  0.00    +0.002 C 
BRANCH   4   6
ATOM      6  CG1 ILE A   1       2.276 -11.065   6.403  0.00  0.00    +0.002 C 
ATOM      7  CD1 ILE A   1       1.450 -10.140   7.315  0.00  0.00    +0.000 C 
ENDBRANCH   4   6
ENDBRANCH   1   4
BRANCH   1   8
ATOM      8  C   ILE A   1       4.883 -13.854   6.813  0.00  0.00    +0.224 C 
ATOM      9  O   ILE A   1       6.056 -13.573   6.661  0.00  0.00    -0.287 OA
ENDBRANCH   1   8
TORSDOF 4
REMARK  Name = ../refined-set-2016/4b7p/4b7p_pocket.pdb
REMARK  215 active torsions:
REMARK  status: ('A' for Active; 'I' for Inactive)
REMARK    1  A    between atoms: _1  and  _3
REMARK    2  A    between atoms: _3  and  _4
REMARK    3  A    between atoms: _3  and  _6
REMARK    4  A    between atoms: _6  and  _7
REMARK    5  A    between atoms: _10  and  _12
REMARK    6  A    between atoms: _12  and  _13
REMARK    7  A    between atoms: _12  and  _15
REMARK    8  A    between atoms: _15  and  _16
REMARK    9  A    between atoms: _22  and  _24
REMARK   10  A    between atoms: _24  and  _25
REMARK   11  A    between atoms: _24  and  _27
REMARK   12  A    between atoms: _27  and  _28
REMARK   13  A    between atoms: _31  and  _33
REMARK   14  A    between atoms: _33  and  _34
REMARK   15  A    between atoms: _33  and  _36
REMARK   16  A    between atoms: _36  and  _37
REMARK   17  A    between atoms: _37  and  _38
REMARK   18  A    between atoms: _41  and  _43
REMARK   19  A    between atoms: _43  and  _44
REMARK   20  A    between atoms: _43  and  _46
REMARK   21  A    between atoms: _46  and  _47
REMARK   22  A    between atoms: _50  and  _52
REMARK   23  A    between atoms: _52  and  _53
REMARK   24  A    between atoms: _52  and  _55
REMARK   25  A    between atoms: _55  and  _56
REMARK   26  A    between atoms: _59  and  _61
REMARK   27  A    between atoms: _61  and  _62
REMARK   28  A    between atoms: _61  and  _64
REMARK   29  A    between atoms: _64  and  _65
REMARK   30  A    between atoms: _67  and  _69
REMARK   31  A    between atoms: _69  and  _70
REMARK   32  A    between atoms: _69  and  _72
REMARK   33  A    between atoms: _72  and  _73
REMARK   34  A    between atoms: _78  and  _80
REMARK   35  A    between atoms: _80  and  _81
REMARK   36  A    between atoms: _80  and  _83
REMARK   37  A    between atoms: _83  and  _84
REMARK   38  A    between atoms: _86  and  _88
REMARK   39  A    between atoms: _88  and  _89
REMARK   40  A    between atoms: _88  and  _91
REMARK   41  A    between atoms: _91  and  _92
REMARK   42  A    between atoms: _94  and  _96
REMARK   43  A    between atoms: _96  and  _97
REMARK   44  A    between atoms: _96  and  _99
REMARK   45  A    between atoms: _99  and  _100
REMARK   46  A    between atoms: _103  and  _105
REMARK   47  A    between atoms: _105  and  _106
REMARK   48  A    between atoms: _109  and  _111
REMARK   49  A    between atoms: _111  and  _112
REMARK   50  A    between atoms: _111  and  _114
REMARK   51  A    between atoms: _114  and  _115
REMARK   52  A    between atoms: _118  and  _120
REMARK   53  A    between atoms: _120  and  _121
REMARK   54  A    between atoms: _120  and  _123
REMARK   55  A    between atoms: _123  and  _124
REMARK   56  A    between atoms: _127  and  _129
REMARK   57  A    between atoms: _129  and  _130
REMARK   58  A    between atoms: _129  and  _132
REMARK   59  A    between atoms: _132  and  _133
REMARK   60  A    between atoms: _133  and  _134
REMARK   61  A    between atoms: _134  and  _135
REMARK   62  A    between atoms: _135  and  _136
REMARK   63  A    between atoms: _140  and  _142
REMARK   64  A    between atoms: _142  and  _143
REMARK   65  A    between atoms: _142  and  _145
REMARK   66  A    between atoms: _145  and  _146
REMARK   67  A    between atoms: _149  and  _151
REMARK   68  A    between atoms: _151  and  _152
REMARK   69  A    between atoms: _151  and  _154
REMARK   70  A    between atoms: _154  and  _155
REMARK   71  A    between atoms: _155  and  _156
REMARK   72  A    between atoms: _159  and  _161
REMARK   73  A    between atoms: _161  and  _162
REMARK   74  A    between atoms: _161  and  _164
REMARK   75  A    between atoms: _164  and  _165
REMARK   76  A    between atoms: _168  and  _170
REMARK   77  A    between atoms: _170  and  _171
REMARK   78  A    between atoms: _170  and  _173
REMARK   79  A    between atoms: _176  and  _178
REMARK   80  A    between atoms: _178  and  _179
REMARK   81  A    between atoms: _178  and  _181
REMARK   82  A    between atoms: _181  and  _182
REMARK   83  A    between atoms: _185  and  _187
REMARK   84  A    between atoms: _187  and  _188
REMARK   85  A    between atoms: _187  and  _190
REMARK   86  A    between atoms: _190  and  _191
REMARK   87  A    between atoms: _194  and  _196
REMARK   88  A    between atoms: _196  and  _197
REMARK   89  A    between atoms: _199  and  _201
REMARK   90  A    between atoms: _201  and  _202
REMARK   91  A    between atoms: _201  and  _204
REMARK   92  A    between atoms: _204  and  _205
REMARK   93  A    between atoms: _208  and  _210
REMARK   94  A    between atoms: _210  and  _211
REMARK   95  A    between atoms: _213  and  _215
REMARK   96  A    between atoms: _215  and  _216
REMARK   97  A    between atoms: _215  and  _218
REMARK   98  A    between atoms: _218  and  _219
REMARK   99  A    between atoms: _219  and  _220
REMARK  100  A    between atoms: _222  and  _224
REMARK  101  A    between atoms: _224  and  _225
REMARK  102  A    between atoms: _224  and  _227
REMARK  103  A    between atoms: _227  and  _228
REMARK  104  A    between atoms: _231  and  _233
REMARK  105  A    between atoms: _233  and  _234
REMARK  106  A    between atoms: _237  and  _239
REMARK  107  A    between atoms: _239  and  _240
REMARK  108  A    between atoms: _239  and  _242
REMARK  109  A    between atoms: _242  and  _243
REMARK  110  A    between atoms: _246  and  _248
REMARK  111  A    between atoms: _248  and  _249
REMARK  112  A    between atoms: _248  and  _251
REMARK  113  A    between atoms: _251  and  _252
REMARK  114  A    between atoms: _255  and  _257
REMARK  115  A    between atoms: _257  and  _258
REMARK  116  A    between atoms: _257  and  _260
REMARK  117  A    between atoms: _260  and  _261
REMARK  118  A    between atoms: _266  and  _268
REMARK  119  A    between atoms: _268  and  _269
REMARK  120  A    between atoms: _268  and  _271
REMARK  121  A    between atoms: _271  and  _272
REMARK  122  A    between atoms: _277  and  _279
REMARK  123  A    between atoms: _279  and  _280
REMARK  124  A    between atoms: _279  and  _282
REMARK  125  A    between atoms: _282  and  _283
REMARK  126  A    between atoms: _286  and  _288
REMARK  127  A    between atoms: _288  and  _289
REMARK  128  A    between atoms: _291  and  _293
REMARK  129  A    between atoms: _293  and  _294
REMARK  130  A    between atoms: _293  and  _296
REMARK  131  A    between atoms: _296  and  _297
REMARK  132  A    between atoms: _300  and  _302
REMARK  133  A    between atoms: _302  and  _303
REMARK  134  A    between atoms: _302  and  _305
REMARK  135  A    between atoms: _305  and  _306
REMARK  136  A    between atoms: _306  and  _307
REMARK  137  A    between atoms: _307  and  _308
REMARK  138  A    between atoms: _308  and  _309
REMARK  139  A    between atoms: _313  and  _315
REMARK  140  A    between atoms: _315  and  _316
REMARK  141  A    between atoms: _318  and  _320
REMARK  142  A    between atoms: _320  and  _321
REMARK  143  A    between atoms: _320  and  _323
REMARK  144  A    between atoms: _323  and  _324
REMARK  145  A    between atoms: _330  and  _332
REMARK  146  A    between atoms: _332  and  _333
REMARK  147  A    between atoms: _335  and  _337
REMARK  148  A    between atoms: _337  and  _338
REMARK  149  A    between atoms: _337  and  _340
REMARK  150  A    between atoms: _343  and  _345
REMARK  151  A    between atoms: _345  and  _346
REMARK  152  A    between atoms: _348  and  _350
REMARK  153  A    between atoms: _350  and  _351
REMARK  154  A    between atoms: _350  and  _353
REMARK  155  A    between atoms: _353  and  _354
REMARK  156  A    between atoms: _360  and  _362
REMARK  157  A    between atoms: _362  and  _363
REMARK  158  A    between atoms: _362  and  _365
REMARK  159  A    between atoms: _365  and  _366
REMARK  160  A    between atoms: _371  and  _372
REMARK  161  A    between atoms: _374  and  _376
REMARK  162  A    between atoms: _376  and  _377
REMARK  163  A    between atoms: _376  and  _379
REMARK  164  A    between atoms: _379  and  _380
REMARK  165  A    between atoms: _382  and  _384
REMARK  166  A    between atoms: _384  and  _385
REMARK  167  A    between atoms: _388  and  _390
REMARK  168  A    between atoms: _390  and  _391
REMARK  169  A    between atoms: _390  and  _393
REMARK  170  A    between atoms: _396  and  _398
REMARK  171  A    between atoms: _398  and  _399
REMARK  172  A    between atoms: _398  and  _401
REMARK  173  A    between atoms: _404  and  _406
REMARK  174  A    between atoms: _406  and  _407
REMARK  175  A    between atoms: _406  and  _409
REMARK  176  A    between atoms: _409  and  _410
REMARK  177  A    between atoms: _413  and  _415
REMARK  178  A    between atoms: _415  and  _416
REMARK  179  A    between atoms: _415  and  _418
REMARK  180  A    between atoms: _418  and  _419
REMARK  181  A    between atoms: _422  and  _424
REMARK  182  A    between atoms: _424  and  _425
REMARK  183  A    between atoms: _424  and  _427
REMARK  184  A    between atoms: _427  and  _428
REMARK  185  A    between atoms: _428  and  _429
REMARK  186  A    between atoms: _429  and  _430
REMARK  187  A    between atoms: _430  and  _431
REMARK  188  A    between atoms: _435  and  _437
REMARK  189  A    between atoms: _437  and  _438
REMARK  190  A    between atoms: _437  and  _440
REMARK  191  A    between atoms: _440  and  _441
REMARK  192  A    between atoms: _446  and  _448
REMARK  193  A    between atoms: _448  and  _449
REMARK  194  A    between atoms: _448  and  _451
REMARK  195  A    between atoms: _451  and  _452
REMARK  196  A    between atoms: _457  and  _459
REMARK  197  A    between atoms: _459  and  _460
REMARK  198  A    between atoms: _459  and  _462
REMARK  199  A    between atoms: _462  and  _463
REMARK  200  A    between atoms: _466  and  _468
REMARK  201  A    between atoms: _468  and  _469
REMARK  202  A    between atoms: _471  and  _473
REMARK  203  A    between atoms: _473  and  _474
REMARK  204  A    between atoms: _473  and  _476
REMARK  205  A    between atoms: _476  and  _477
REMARK  206  A    between atoms: _480  and  _482
REMARK  207  A    between atoms: _482  and  _483
REMARK  208  A    between atoms: _482  and  _485
REMARK  209  A    between atoms: _485  and  _486
REMARK  210  A    between atoms: _486  and  _487
REMARK  211  A    between atoms: _487  and  _488
REMARK  212  A    between atoms: _488  and  _489
REMARK  213  A    between atoms: _493  and  _495
REMARK  214  A    between atoms: _495  and  _496
REMARK  215  A    between atoms: _495  and  _498
REMARK                            x       y       z     vdW  Elec       q    Type
REMARK                         _______ _______ _______ _____ _____    ______ ____
ROOT
ATOM      1  C   PHE A   1      16.178  -0.492   4.932  0.00  0.00    +0.239 C 
ATOM      2  O   PHE A   1      15.161  -0.166   5.509  0.00  0.00    -0.274 OA
ATOM      3  N   LEU A   2      17.203   0.323   4.819  0.00  0.00    -0.298 N 
ATOM      4  H   LEU A   2      18.036   0.059   4.254  0.00  0.00    +0.150 HD
ENDROOT
BRANCH   1   5
ATOM      5  CA  PHE A   1      16.310  -1.915   4.334  0.00  0.00    +0.149 C 
BRANCH   5   6
ATOM      6  N   PHE A   1      17.108  -1.876   3.091  0.00  0.00    -0.238 NA
ATOM      7  H   PHE A   1      17.926  -2.505   2.961  0.00  0.00    +0.142 HD
ENDBRANCH   5   6
BRANCH   5   8
ATOM      8  CB  PHE A   1      16.890  -2.878   5.387  0.00  0.00    +0.053 C 
BRANCH   8   9
ATOM      9  CG  PHE A   1      18.009  -2.264   6.191  0.00  0.00    -0.020 A 
ATOM     10  CD2 PHE A   1      17.738  -1.560   7.366  0.00  0.00    -0.004 A 
ATOM     11  CE2 PHE A   1      18.780  -0.923   8.066  0.00  0.00    -0.000 A 
ATOM     12  CZ  PHE A   1      20.082  -0.999   7.552  0.00  0.00    -0.000 A 
ATOM     13  CE1 PHE A   1      20.352  -1.689   6.382  0.00  0.00    -0.000 A 
ATOM     14  CD1 PHE A   1      19.305  -2.299   5.687  0.00  0.00    -0.004 A 
ENDBRANCH   8   9
ENDBRANCH   5   8
ENDBRANCH   1   5
BRANCH   3  15
ATOM     15  CA  LEU A   2      17.140   1.619   5.514  0.00  0.00    +0.137 C 
BRANCH  15  16
ATOM     16  C   LEU A   2      16.199   2.572   4.764  0.00  0.00    +0.227 C 
ATOM     17  O   LEU A   2      15.465   3.346   5.380  0.00  0.00    -0.286 OA
ENDBRANCH  15  16
BRANCH  15  18
ATOM     18  CB  LEU A   2      18.539   2.239   5.659  0.00  0.00    +0.028 C 
BRANCH  18  19
ATOM     19  CG  LEU A   2      18.546   3.559   6.478  0.00  0.00    +0.002 C 
ATOM     20  CD2 LEU A   2      18.040   3.301   7.880  0.00  0.00    +0.000 C 
ATOM     21  CD1 LEU A   2      20.009   3.954   6.520  0.00  0.00    +0.000 C 
ENDBRANCH  18  19
ENDBRANCH  15  18
ENDBRANCH   3  15
TORSDOF 8
REMARK  Name = ../refined-set-2016/4b7p/4b7p_pocket.pdb
REMARK  215 active torsions:
REMARK  status: ('A' for Active; 'I' for Inactive)
REMARK    1  A    between atoms: _1  and  _3
REMARK    2  A    between atoms: _3  and  _4
REMARK    3  A    between atoms: _3  and  _6
REMARK    4  A    between atoms: _6  and  _7
REMARK    5  A    between atoms: _10  and  _12
REMARK    6  A    between atoms: _12  and  _13
REMARK    7  A    between atoms: _12  and  _15
REMARK    8  A    between atoms: _15  and  _16
REMARK    9  A    between atoms: _22  and  _24
REMARK   10  A    between atoms: _24  and  _25
REMARK   11  A    between atoms: _24  and  _27
REMARK   12  A    between atoms: _27  and  _28
REMARK   13  A    between atoms: _31  and  _33
REMARK   14  A    between atoms: _33  and  _34
REMARK   15  A    between atoms: _33  and  _36
REMARK   16  A    between atoms: _36  and  _37
REMARK   17  A    between atoms: _37  and  _38
REMARK   18  A    between atoms: _41  and  _43
REMARK   19  A    between atoms: _43  and  _44
REMARK   20  A    between atoms: _43  and  _46
REMARK   21  A    between atoms: _46  and  _47
REMARK   22  A    between atoms: _50  and  _52
REMARK   23  A    between atoms: _52  and  _53
REMARK   24  A    between atoms: _52  and  _55
REMARK   25  A    between atoms: _55  and  _56
REMARK   26  A    between atoms: _59  and  _61
REMARK   27  A    between atoms: _61  and  _62
REMARK   28  A    between atoms: _61  and  _64
REMARK   29  A    between atoms: _64  and  _65
REMARK   30  A    between atoms: _67  and  _69
REMARK   31  A    between atoms: _69  and  _70
REMARK   32  A    between atoms: _69  and  _72
REMARK   33  A    between atoms: _72  and  _73
REMARK   34  A    between atoms: _78  and  _80
REMARK   35  A    between atoms: _80  and  _81
REMARK   36  A    between atoms: _80  and  _83
REMARK   37  A    between atoms: _83  and  _84
REMARK   38  A    between atoms: _86  and  _88
REMARK   39  A    between atoms: _88  and  _89
REMARK   40  A    between atoms: _88  and  _91
REMARK   41  A    between atoms: _91  and  _92
REMARK   42  A    between atoms: _94  and  _96
REMARK   43  A    between atoms: _96  and  _97
REMARK   44  A    between atoms: _96  and  _99
REMARK   45  A    between atoms: _99  and  _100
REMARK   46  A    between atoms: _103  and  _105
REMARK   47  A    between atoms: _105  and  _106
REMARK   48  A    between atoms: _109  and  _111
REMARK   49  A    between atoms: _111  and  _112
REMARK   50  A    between atoms: _111  and  _114
REMARK   51  A    between atoms: _114  and  _115
REMARK   52  A    between atoms: _118  and  _120
REMARK   53  A    between atoms: _120  and  _121
REMARK   54  A    between atoms: _120  and  _123
REMARK   55  A    between atoms: _123  and  _124
REMARK   56  A    between atoms: _127  and  _129
REMARK   57  A    between atoms: _129  and  _130
REMARK   58  A    between atoms: _129  and  _132
REMARK   59  A    between atoms: _132  and  _133
REMARK   60  A    between atoms: _133  and  _134
REMARK   61  A    between atoms: _134  and  _135
REMARK   62  A    between atoms: _135  and  _136
REMARK   63  A    between atoms: _140  and  _142
REMARK   64  A    between atoms: _142  and  _143
REMARK   65  A    between atoms: _142  and  _145
REMARK   66  A    between atoms: _145  and  _146
REMARK   67  A    between atoms: _149  and  _151
REMARK   68  A    between atoms: _151  and  _152
REMARK   69  A    between atoms: _151  and  _154
REMARK   70  A    between atoms: _154  and  _155
REMARK   71  A    between atoms: _155  and  _156
REMARK   72  A    between atoms: _159  and  _161
REMARK   73  A    between atoms: _161  and  _162
REMARK   74  A    between atoms: _161  and  _164
REMARK   75  A    between atoms: _164  and  _165
REMARK   76  A    between atoms: _168  and  _170
REMARK   77  A    between atoms: _170  and  _171
REMARK   78  A    between atoms: _170  and  _173
REMARK   79  A    between atoms: _176  and  _178
REMARK   80  A    between atoms: _178  and  _179
REMARK   81  A    between atoms: _178  and  _181
REMARK   82  A    between atoms: _181  and  _182
REMARK   83  A    between atoms: _185  and  _187
REMARK   84  A    between atoms: _187  and  _188
REMARK   85  A    between atoms: _187  and  _190
REMARK   86  A    between atoms: _190  and  _191
REMARK   87  A    between atoms: _194  and  _196
REMARK   88  A    between atoms: _196  and  _197
REMARK   89  A    between atoms: _199  and  _201
REMARK   90  A    between atoms: _201  and  _202
REMARK   91  A    between atoms: _201  and  _204
REMARK   92  A    between atoms: _204  and  _205
REMARK   93  A    between atoms: _208  and  _210
REMARK   94  A    between atoms: _210  and  _211
REMARK   95  A    between atoms: _213  and  _215
REMARK   96  A    between atoms: _215  and  _216
REMARK   97  A    between atoms: _215  and  _218
REMARK   98  A    between atoms: _218  and  _219
REMARK   99  A    between atoms: _219  and  _220
REMARK  100  A    between atoms: _222  and  _224
REMARK  101  A    between atoms: _224  and  _225
REMARK  102  A    between atoms: _224  and  _227
REMARK  103  A    between atoms: _227  and  _228
REMARK  104  A    between atoms: _231  and  _233
REMARK  105  A    between atoms: _233  and  _234
REMARK  106  A    between atoms: _237  and  _239
REMARK  107  A    between atoms: _239  and  _240
REMARK  108  A    between atoms: _239  and  _242
REMARK  109  A    between atoms: _242  and  _243
REMARK  110  A    between atoms: _246  and  _248
REMARK  111  A    between atoms: _248  and  _249
REMARK  112  A    between atoms: _248  and  _251
REMARK  113  A    between atoms: _251  and  _252
REMARK  114  A    between atoms: _255  and  _257
REMARK  115  A    between atoms: _257  and  _258
REMARK  116  A    between atoms: _257  and  _260
REMARK  117  A    between atoms: _260  and  _261
REMARK  118  A    between atoms: _266  and  _268
REMARK  119  A    between atoms: _268  and  _269
REMARK  120  A    between atoms: _268  and  _271
REMARK  121  A    between atoms: _271  and  _272
REMARK  122  A    between atoms: _277  and  _279
REMARK  123  A    between atoms: _279  and  _280
REMARK  124  A    between atoms: _279  and  _282
REMARK  125  A    between atoms: _282  and  _283
REMARK  126  A    between atoms: _286  and  _288
REMARK  127  A    between atoms: _288  and  _289
REMARK  128  A    between atoms: _291  and  _293
REMARK  129  A    between atoms: _293  and  _294
REMARK  130  A    between atoms: _293  and  _296
REMARK  131  A    between atoms: _296  and  _297
REMARK  132  A    between atoms: _300  and  _302
REMARK  133  A    between atoms: _302  and  _303
REMARK  134  A    between atoms: _302  and  _305
REMARK  135  A    between atoms: _305  and  _306
REMARK  136  A    between atoms: _306  and  _307
REMARK  137  A    between atoms: _307  and  _308
REMARK  138  A    between atoms: _308  and  _309
REMARK  139  A    between atoms: _313  and  _315
REMARK  140  A    between atoms: _315  and  _316
REMARK  141  A    between atoms: _318  and  _320
REMARK  142  A    between atoms: _320  and  _321
REMARK  143  A    between atoms: _320  and  _323
REMARK  144  A    between atoms: _323  and  _324
REMARK  145  A    between atoms: _330  and  _332
REMARK  146  A    between atoms: _332  and  _333
REMARK  147  A    between atoms: _335  and  _337
REMARK  148  A    between atoms: _337  and  _338
REMARK  149  A    between atoms: _337  and  _340
REMARK  150  A    between atoms: _343  and  _345
REMARK  151  A    between atoms: _345  and  _346
REMARK  152  A    between atoms: _348  and  _350
REMARK  153  A    between atoms: _350  and  _351
REMARK  154  A    between atoms: _350  and  _353
REMARK  155  A    between atoms: _353  and  _354
REMARK  156  A    between atoms: _360  and  _362
REMARK  157  A    between atoms: _362  and  _363
REMARK  158  A    between atoms: _362  and  _365
REMARK  159  A    between atoms: _365  and  _366
REMARK  160  A    between atoms: _371  and  _372
REMARK  161  A    between atoms: _374  and  _376
REMARK  162  A    between atoms: _376  and  _377
REMARK  163  A    between atoms: _376  and  _379
REMARK  164  A    between atoms: _379  and  _380
REMARK  165  A    between atoms: _382  and  _384
REMARK  166  A    between atoms: _384  and  _385
REMARK  167  A    between atoms: _388  and  _390
REMARK  168  A    between atoms: _390  and  _391
REMARK  169  A    between atoms: _390  and  _393
REMARK  170  A    between atoms: _396  and  _398
REMARK  171  A    between atoms: _398  and  _399
REMARK  172  A    between atoms: _398  and  _401
REMARK  173  A    between atoms: _404  and  _406
REMARK  174  A    between atoms: _406  and  _407
REMARK  175  A    between atoms: _406  and  _409
REMARK  176  A    between atoms: _409  and  _410
REMARK  177  A    between atoms: _413  and  _415
REMARK  178  A    between atoms: _415  and  _416
REMARK  179  A    between atoms: _415  and  _418
REMARK  180  A    between atoms: _418  and  _419
REMARK  181  A    between atoms: _422  and  _424
REMARK  182  A    between atoms: _424  and  _425
REMARK  183  A    between atoms: _424  and  _427
REMARK  184  A    between atoms: _427  and  _428
REMARK  185  A    between atoms: _428  and  _429
REMARK  186  A    between atoms: _429  and  _430
REMARK  187  A    between atoms: _430  and  _431
REMARK  188  A    between atoms: _435  and  _437
REMARK  189  A    between atoms: _437  and  _438
REMARK  190  A    between atoms: _437  and  _440
REMARK  191  A    between atoms: _440  and  _441
REMARK  192  A    between atoms: _446  and  _448
REMARK  193  A    between atoms: _448  and  _449
REMARK  194  A    between atoms: _448  and  _451
REMARK  195  A    between atoms: _451  and  _452
REMARK  196  A    between atoms: _457  and  _459
REMARK  197  A    between atoms: _459  and  _460
REMARK  198  A    between atoms: _459  and  _462
REMARK  199  A    between atoms: _462  and  _463
REMARK  200  A    between atoms: _466  and  _468
REMARK  201  A    between atoms: _468  and  _469
REMARK  202  A    between atoms: _471  and  _473
REMARK  203  A    between atoms: _473  and  _474
REMARK  204  A    between atoms: _473  and  _476
REMARK  205  A    between atoms: _476  and  _477
REMARK  206  A    between atoms: _480  and  _482
REMARK  207  A    between atoms: _482  and  _483
REMARK  208  A    between atoms: _482  and  _485
REMARK  209  A    between atoms: _485  and  _486
REMARK  210  A    between atoms: _486  and  _487
REMARK  211  A    between atoms: _487  and  _488
REMARK  212  A    between atoms: _488  and  _489
REMARK  213  A    between atoms: _493  and  _495
REMARK  214  A    between atoms: _495  and  _496
REMARK  215  A    between atoms: _495  and  _498
REMARK                            x       y       z     vdW  Elec       q    Type
REMARK                         _______ _______ _______ _____ _____    ______ ____
ROOT
ATOM      1  CA  SER A   7       8.304   9.877   6.291  0.00  0.00    +0.178 C 
ENDROOT
BRANCH   1   4
ATOM      2  C   SER A   6       8.331   8.441   8.274  0.00  0.00    +0.243 C 
ATOM      3  O   SER A   6       7.516   9.141   8.890  0.00  0.00    -0.273 OA
ATOM      4  N   SER A   7       8.780   8.699   7.039  0.00  0.00    -0.295 N 
ATOM      5  H   SER A   7       9.474   8.060   6.602  0.00  0.00    +0.150 HD
BRANCH   2   6
ATOM      6  CA  SER A   6       8.905   7.181   8.932  0.00  0.00    +0.178 C 
BRANCH   6   8
ATOM      7  C   ASN A   5       7.713   5.604   7.534  0.00  0.00    +0.241 C 
ATOM      8  N   SER A   6       8.875   6.049   7.984  0.00  0.00    -0.295 N 
ATOM      9  H   SER A   6       9.762   5.604   7.672  0.00  0.00    +0.150 HD
ATOM     10  O   ASN A   5       6.641   6.062   7.909  0.00  0.00    -0.273 OA
BRANCH   7  11
ATOM     11  CA  ASN A   5       7.777   4.483   6.499  0.00  0.00    +0.158 C 
BRANCH  11  13
ATOM     12  C   SER A   4       8.905   5.712   4.765  0.00  0.00    +0.243 C 
ATOM     13  N   ASN A   5       8.908   4.684   5.595  0.00  0.00    -0.297 N 
ATOM     14  H   ASN A   5       9.710   4.022   5.605  0.00  0.00    +0.150 HD
ATOM     15  O   SER A   4       7.957   6.476   4.703  0.00  0.00    -0.273 OA
BRANCH  12  16
ATOM     16  CA  SER A   4      10.122   5.885   3.855  0.00  0.00    +0.178 C 
BRANCH  16  19
ATOM     17  C   ILE A   3      11.715   6.461   5.605  0.00  0.00    +0.241 C 
ATOM     18  O   ILE A   3      11.038   7.418   5.998  0.00  0.00    -0.273 OA
ATOM     19  N   SER A   4      11.376   5.663   4.596  0.00  0.00    -0.295 N 
ATOM     20  H   SER A   4      12.001   4.876   4.328  0.00  0.00    +0.150 HD
BRANCH  17  21
ATOM     21  CA  ILE A   3      12.998   6.089   6.338  0.00  0.00    +0.149 C 
BRANCH  21  24
ATOM     22  C   LEU A   2      12.243   3.937   7.166  0.00  0.00    +0.241 C 
ATOM     23  O   LEU A   2      11.325   4.449   7.769  0.00  0.00    -0.273 OA
ATOM     24  N   ILE A   3      13.106   4.629   6.428  0.00  0.00    -0.297 N 
ATOM     25  H   ILE A   3      13.861   4.133   5.912  0.00  0.00    +0.150 HD
BRANCH  22  26
ATOM     26  CA  LEU A   2      12.480   2.425   7.292  0.00  0.00    +0.149 C 
BRANCH  26  28
ATOM     27  C   GLU A   1      11.853   1.851   5.017  0.00  0.00    +0.238 C 
ATOM     28  N   LEU A   2      12.782   1.807   5.972  0.00  0.00    -0.297 N 
ATOM     29  H   LEU A   2      13.700   1.350   5.798  0.00  0.00    +0.150 HD
ATOM     30  O   GLU A   1      10.752   2.353   5.185  0.00  0.00    -0.274 OA
BRANCH  27  31
ATOM     31  CA  GLU A   1      12.220   1.279   3.665  0.00  0.00    +0.145 C 
BRANCH  31  32
ATOM     32  N   GLU A   1      13.574   1.679   3.317  0.00  0.00    -0.238 NA
ATOM     33  H   GLU A   1      14.324   0.961   3.259  0.00  0.00    +0.142 HD
ENDBRANCH  31  32
BRANCH  31  34
ATOM     34  CB  GLU A   1      12.065  -0.224   3.683  0.00  0.00    +0.038 C 
BRANCH  34  35
ATOM     35  CG  GLU A   1      12.214  -0.849   2.280  0.00  0.00    +0.116 C 
BRANCH  35  36
ATOM     36  CD  GLU A   1      11.241  -0.235   1.278  0.00  0.00    +0.365 C 
ATOM     37  OE2 GLU A   1      10.048  -0.023   1.611  0.00  0.00    -0.246 OA
ATOM     38  OE1 GLU A   1      11.669   0.086   0.164  0.00  0.00    -0.246 OA
ENDBRANCH  35  36
ENDBRANCH  34  35
ENDBRANCH  31  34
ENDBRANCH  27  31
ENDBRANCH  26  28
BRANCH  26  39
ATOM     39  CB  LEU A   2      13.625   2.173   8.289  0.00  0.00    +0.029 C 
BRANCH  39  40
ATOM     40  CG  LEU A   2      13.687   0.733   8.751  0.00  0.00    +0.002 C 
ATOM     41  CD2 LEU A   2      12.782   0.582   9.983  0.00  0.00    +0.000 C 
ATOM     42  CD1 LEU A   2      15.141   0.327   9.017  0.00  0.00    +0.000 C 
ENDBRANCH  39  40
ENDBRANCH  26  39
ENDBRANCH  22  26
ENDBRANCH  21  24
BRANCH  21  43
ATOM     43  CB  ILE A   3      14.229   6.667   5.652  0.00  0.00    +0.027 C 
ATOM     44  CG2 ILE A   3      13.984   8.086   5.199  0.00  0.00    +0.002 C 
BRANCH  43  45
ATOM     45  CG1 ILE A   3      15.441   6.543   6.599  0.00  0.00    +0.002 C 
ATOM     46  CD1 ILE A   3      16.761   6.865   5.881  0.00  0.00    +0.000 C 
ENDBRANCH  43  45
ENDBRANCH  21  43
ENDBRANCH  17  21
ENDBRANCH  16  19
BRANCH  16  47
ATOM     47  CB  SER A   4      10.004   4.960   2.651  0.00  0.00    +0.166 C 
BRANCH  47  48
ATOM     48  OG  SER A   4      10.932   5.416   1.683  0.00  0.00    -0.380 OA
ATOM     49  H   SER A   4      10.713   6.348   1.431  0.00  0.00    +0.211 HD
ENDBRANCH  47  48
ENDBRANCH  16  47
ENDBRANCH  12  16
ENDBRANCH  11  13
BRANCH  11  50
ATOM     50  CB  ASN A   5       7.910   3.100   7.137  0.00  0.00    +0.114 C 
BRANCH  50  51
ATOM     51  CG  ASN A   5       7.502   1.998   6.168  0.00  0.00    +0.222 C 
ATOM     52  ND2 ASN A   5       7.987   0.801   6.383  0.00  0.00    -0.329 N 
ATOM     53 HD21 ASN A   5       8.655   0.643   7.165  0.00  0.00    +0.145 HD
ATOM     54 HD22 ASN A   5       7.705   0.008   5.772  0.00  0.00    +0.145 HD
ATOM     55  OD1 ASN A   5       6.710   2.235   5.257  0.00  0.00    -0.275 OA
ENDBRANCH  50  51
ENDBRANCH  11  50
ENDBRANCH   7  11
ENDBRANCH   6   8
BRANCH   6  56
ATOM     56  CB  SER A   6      10.329   7.514   9.384  0.00  0.00    +0.166 C 
BRANCH  56  57
ATOM     57  OG  SER A   6      10.787   6.475  10.235  0.00  0.00    -0.380 OA
ATOM     58  H   SER A   6      10.190   6.407  11.022  0.00  0.00    +0.211 HD
ENDBRANCH  56  57
ENDBRANCH   6  56
ENDBRANCH   2   6
ENDBRANCH   1   4
BRANCH   1  59
ATOM     59  C   SER A   7       6.788   9.809   6.168  0.00  0.00    +0.243 C 
ATOM     60  O   SER A   7       6.105  10.801   6.387  0.00  0.00    -0.273 OA
ATOM     61  N   ASP A   8       6.254   8.629   5.859  0.00  0.00    -0.296 N 
ATOM     62  H   ASP A   8       6.864   7.803   5.693  0.00  0.00    +0.150 HD
BRANCH  61  63
ATOM     63  CA  ASP A   8       4.786   8.507   5.755  0.00  0.00    +0.160 C 
BRANCH  63  64
ATOM     64  C   ASP A   8       4.088   8.805   7.080  0.00  0.00    +0.241 C 
ATOM     65  N   ALA A   9       4.658   8.310   8.187  0.00  0.00    -0.297 N 
ATOM     66  H   ALA A   9       5.507   7.713   8.115  0.00  0.00    +0.150 HD
ATOM     67  O   ASP A   8       3.022   9.466   7.110  0.00  0.00    -0.273 OA
BRANCH  65  68
ATOM     68  CA  ALA A   9       4.083   8.612   9.496  0.00  0.00    +0.149 C 
ATOM     69  CB  ALA A   9       4.655   7.756  10.595  0.00  0.00    +0.031 C 
BRANCH  68  70
ATOM     70  C   ALA A   9       4.164  10.068   9.868  0.00  0.00    +0.241 C 
ATOM     71  O   ALA A   9       3.281  10.580  10.569  0.00  0.00    -0.273 OA
ATOM     72  N   LEU A  10       5.231  10.724   9.437  0.00  0.00    -0.297 N 
ATOM     73  H   LEU A  10       5.952  10.216   8.887  0.00  0.00    +0.150 HD
BRANCH  72  74
ATOM     74  CA  LEU A  10       5.417  12.144   9.717  0.00  0.00    +0.149 C 
BRANCH  74  75
ATOM     75  C   LEU A  10       4.377  12.939   8.891  0.00  0.00    +0.241 C 
ATOM     76  O   LEU A  10       3.741  13.879   9.405  0.00  0.00    -0.273 OA
ATOM     77  N   ASP A  11       4.173  12.520   7.646  0.00  0.00    -0.297 N 
ATOM     78  H   ASP A  11       4.765  11.765   7.246  0.00  0.00    +0.150 HD
BRANCH  77  79
ATOM     79  CA  ASP A  11       3.083  13.142   6.819  0.00  0.00    +0.160 C 
BRANCH  79  80
ATOM     80  C   ASP A  11       1.743  13.061   7.561  0.00  0.00    +0.241 C 
ATOM     81  N   LYS A  12       1.443  11.912   8.159  0.00  0.00    -0.297 N 
ATOM     82  H   LYS A  12       2.130  11.131   8.142  0.00  0.00    +0.150 HD
ATOM     83  O   ASP A  11       0.993  14.043   7.656  0.00  0.00    -0.273 OA
BRANCH  81  84
ATOM     84  CA  LYS A  12       0.166  11.731   8.838  0.00  0.00    +0.149 C 
BRANCH  84  85
ATOM     85  C   LYS A  12      -0.048  12.717   9.970  0.00  0.00    +0.241 C 
ATOM     86  N   ILE A  13       0.957  12.899  10.814  0.00  0.00    -0.298 N 
ATOM     87  H   ILE A  13       1.832  12.347  10.709  0.00  0.00    +0.150 HD
ATOM     88  O   LYS A  12      -1.103  13.307  10.070  0.00  0.00    -0.273 OA
BRANCH  86  89
ATOM     89  CA  ILE A  13       0.832  13.881  11.896  0.00  0.00    +0.137 C 
BRANCH  89  90
ATOM     90  C   ILE A  13       0.865  15.302  11.383  0.00  0.00    +0.227 C 
ATOM     91  O   ILE A  13       0.103  16.136  11.907  0.00  0.00    -0.286 OA
ENDBRANCH  89  90
BRANCH  89  92
ATOM     92  CB  ILE A  13       1.876  13.679  13.031  0.00  0.00    +0.026 C 
ATOM     93  CG2 ILE A  13       3.301  13.770  12.524  0.00  0.00    +0.002 C 
BRANCH  92  94
ATOM     94  CG1 ILE A  13       1.608  14.621  14.222  0.00  0.00    +0.002 C 
ATOM     95  CD1 ILE A  13       0.321  14.304  14.946  0.00  0.00    +0.000 C 
ENDBRANCH  92  94
ENDBRANCH  89  92
ENDBRANCH  86  89
ENDBRANCH  84  85
BRANCH  84  96
ATOM     96  CB  LYS A  12      -0.026  10.310   9.330  0.00  0.00    +0.029 C 
BRANCH  96  97
ATOM     97  CG  LYS A  12      -0.320   9.363   8.161  0.00  0.00    +0.000 C 
BRANCH  97  98
ATOM     98  CD  LYS A  12      -0.580   7.951   8.656  0.00  0.00    -0.024 C 
BRANCH  98  99
ATOM     99  CE  LYS A  12      -0.921   7.086   7.450  0.00  0.00    -0.086 C 
BRANCH  99 100
ATOM    100  NZ  LYS A  12      -1.356   5.763   7.970  0.00  0.00    +0.380 N 
ATOM    101  HZ1 LYS A  12      -2.189   5.888   8.579  0.00  0.00    -0.089 HD
ATOM    102  HZ2 LYS A  12      -0.583   5.337   8.521  0.00  0.00    -0.089 HD
ATOM    103  HZ3 LYS A  12      -1.599   5.141   7.172  0.00  0.00    -0.089 HD
ENDBRANCH  99 100
ENDBRANCH  98  99
ENDBRANCH  97  98
ENDBRANCH  96  97
ENDBRANCH  84  96
ENDBRANCH  81  84
ENDBRANCH  79  80
BRANCH  79 104
ATOM    104  CB  ASP A  11       2.938  12.402   5.498  0.00  0.00    +0.143 C 
BRANCH 104 105
ATOM    105  CG  ASP A  11       4.068  12.725   4.506  0.00  0.00    +0.367 C 
ATOM    106  OD2 ASP A  11       4.785  13.738   4.620  0.00  0.00    -0.246 OA
ATOM    107  OD1 ASP A  11       4.186  11.973   3.534  0.00  0.00    -0.246 OA
ENDBRANCH 104 105
ENDBRANCH  79 104
ENDBRANCH  77  79
ENDBRANCH  74  75
BRANCH  74 108
ATOM    108  CB  LEU A  10       6.819  12.518   9.329  0.00  0.00    +0.029 C 
BRANCH 108 109
ATOM    109  CG  LEU A  10       7.846  12.048  10.378  0.00  0.00    +0.002 C 
ATOM    110  CD2 LEU A  10       7.738  12.961  11.615  0.00  0.00    +0.000 C 
ATOM    111  CD1 LEU A  10       9.248  12.029   9.756  0.00  0.00    +0.000 C 
ENDBRANCH 108 109
ENDBRANCH  74 108
ENDBRANCH  72  74
ENDBRANCH  68  70
ENDBRANCH  65  68
ENDBRANCH  63  64
BRANCH  63 112
ATOM    112  CB  ASP A   8       4.418   7.108   5.302  0.00  0.00    +0.143 C 
BRANCH 112 113
ATOM    113  CG  ASP A   8       4.763   6.839   3.846  0.00  0.00    +0.367 C 
ATOM    114  OD2 ASP A   8       4.678   5.673   3.411  0.00  0.00    -0.246 OA
ATOM    115  OD1 ASP A   8       5.098   7.761   3.125  0.00  0.00    -0.246 OA
ENDBRANCH 112 113
ENDBRANCH  63 112
ENDBRANCH  61  63
ENDBRANCH   1  59
BRANCH   1 116
ATOM    116  CB  SER A   7       8.951   9.875   4.890  0.00  0.00    +0.166 C 
BRANCH 116 117
ATOM    117  OG  SER A   7       8.476  11.025   4.226  0.00  0.00    -0.380 OA
ATOM    118  H   SER A   7       7.489  10.983   4.160  0.00  0.00    +0.211 HD
ENDBRANCH 116 117
ENDBRANCH   1 116
TORSDOF 54
REMARK  Name = ../refined-set-2016/4b7p/4b7p_pocket.pdb
REMARK  215 active torsions:
REMARK  status: ('A' for Active; 'I' for Inactive)
REMARK    1  A    between atoms: _1  and  _3
REMARK    2  A    between atoms: _3  and  _4
REMARK    3  A    between atoms: _3  and  _6
REMARK    4  A    between atoms: _6  and  _7
REMARK    5  A    between atoms: _10  and  _12
REMARK    6  A    between atoms: _12  and  _13
REMARK    7  A    between atoms: _12  and  _15
REMARK    8  A    between atoms: _15  and  _16
REMARK    9  A    between atoms: _22  and  _24
REMARK   10  A    between atoms: _24  and  _25
REMARK   11  A    between atoms: _24  and  _27
REMARK   12  A    between atoms: _27  and  _28
REMARK   13  A    between atoms: _31  and  _33
REMARK   14  A    between atoms: _33  and  _34
REMARK   15  A    between atoms: _33  and  _36
REMARK   16  A    between atoms: _36  and  _37
REMARK   17  A    between atoms: _37  and  _38
REMARK   18  A    between atoms: _41  and  _43
REMARK   19  A    between atoms: _43  and  _44
REMARK   20  A    between atoms: _43  and  _46
REMARK   21  A    between atoms: _46  and  _47
REMARK   22  A    between atoms: _50  and  _52
REMARK   23  A    between atoms: _52  and  _53
REMARK   24  A    between atoms: _52  and  _55
REMARK   25  A    between atoms: _55  and  _56
REMARK   26  A    between atoms: _59  and  _61
REMARK   27  A    between atoms: _61  and  _62
REMARK   28  A    between atoms: _61  and  _64
REMARK   29  A    between atoms: _64  and  _65
REMARK   30  A    between atoms: _67  and  _69
REMARK   31  A    between atoms: _69  and  _70
REMARK   32  A    between atoms: _69  and  _72
REMARK   33  A    between atoms: _72  and  _73
REMARK   34  A    between atoms: _78  and  _80
REMARK   35  A    between atoms: _80  and  _81
REMARK   36  A    between atoms: _80  and  _83
REMARK   37  A    between atoms: _83  and  _84
REMARK   38  A    between atoms: _86  and  _88
REMARK   39  A    between atoms: _88  and  _89
REMARK   40  A    between atoms: _88  and  _91
REMARK   41  A    between atoms: _91  and  _92
REMARK   42  A    between atoms: _94  and  _96
REMARK   43  A    between atoms: _96  and  _97
REMARK   44  A    between atoms: _96  and  _99
REMARK   45  A    between atoms: _99  and  _100
REMARK   46  A    between atoms: _103  and  _105
REMARK   47  A    between atoms: _105  and  _106
REMARK   48  A    between atoms: _109  and  _111
REMARK   49  A    between atoms: _111  and  _112
REMARK   50  A    between atoms: _111  and  _114
REMARK   51  A    between atoms: _114  and  _115
REMARK   52  A    between atoms: _118  and  _120
REMARK   53  A    between atoms: _120  and  _121
REMARK   54  A    between atoms: _120  and  _123
REMARK   55  A    between atoms: _123  and  _124
REMARK   56  A    between atoms: _127  and  _129
REMARK   57  A    between atoms: _129  and  _130
REMARK   58  A    between atoms: _129  and  _132
REMARK   59  A    between atoms: _132  and  _133
REMARK   60  A    between atoms: _133  and  _134
REMARK   61  A    between atoms: _134  and  _135
REMARK   62  A    between atoms: _135  and  _136
REMARK   63  A    between atoms: _140  and  _142
REMARK   64  A    between atoms: _142  and  _143
REMARK   65  A    between atoms: _142  and  _145
REMARK   66  A    between atoms: _145  and  _146
REMARK   67  A    between atoms: _149  and  _151
REMARK   68  A    between atoms: _151  and  _152
REMARK   69  A    between atoms: _151  and  _154
REMARK   70  A    between atoms: _154  and  _155
REMARK   71  A    between atoms: _155  and  _156
REMARK   72  A    between atoms: _159  and  _161
REMARK   73  A    between atoms: _161  and  _162
REMARK   74  A    between atoms: _161  and  _164
REMARK   75  A    between atoms: _164  and  _165
REMARK   76  A    between atoms: _168  and  _170
REMARK   77  A    between atoms: _170  and  _171
REMARK   78  A    between atoms: _170  and  _173
REMARK   79  A    between atoms: _176  and  _178
REMARK   80  A    between atoms: _178  and  _179
REMARK   81  A    between atoms: _178  and  _181
REMARK   82  A    between atoms: _181  and  _182
REMARK   83  A    between atoms: _185  and  _187
REMARK   84  A    between atoms: _187  and  _188
REMARK   85  A    between atoms: _187  and  _190
REMARK   86  A    between atoms: _190  and  _191
REMARK   87  A    between atoms: _194  and  _196
REMARK   88  A    between atoms: _196  and  _197
REMARK   89  A    between atoms: _199  and  _201
REMARK   90  A    between atoms: _201  and  _202
REMARK   91  A    between atoms: _201  and  _204
REMARK   92  A    between atoms: _204  and  _205
REMARK   93  A    between atoms: _208  and  _210
REMARK   94  A    between atoms: _210  and  _211
REMARK   95  A    between atoms: _213  and  _215
REMARK   96  A    between atoms: _215  and  _216
REMARK   97  A    between atoms: _215  and  _218
REMARK   98  A    between atoms: _218  and  _219
REMARK   99  A    between atoms: _219  and  _220
REMARK  100  A    between atoms: _222  and  _224
REMARK  101  A    between atoms: _224  and  _225
REMARK  102  A    between atoms: _224  and  _227
REMARK  103  A    between atoms: _227  and  _228
REMARK  104  A    between atoms: _231  and  _233
REMARK  105  A    between atoms: _233  and  _234
REMARK  106  A    between atoms: _237  and  _239
REMARK  107  A    between atoms: _239  and  _240
REMARK  108  A    between atoms: _239  and  _242
REMARK  109  A    between atoms: _242  and  _243
REMARK  110  A    between atoms: _246  and  _248
REMARK  111  A    between atoms: _248  and  _249
REMARK  112  A    between atoms: _248  and  _251
REMARK  113  A    between atoms: _251  and  _252
REMARK  114  A    between atoms: _255  and  _257
REMARK  115  A    between atoms: _257  and  _258
REMARK  116  A    between atoms: _257  and  _260
REMARK  117  A    between atoms: _260  and  _261
REMARK  118  A    between atoms: _266  and  _268
REMARK  119  A    between atoms: _268  and  _269
REMARK  120  A    between atoms: _268  and  _271
REMARK  121  A    between atoms: _271  and  _272
REMARK  122  A    between atoms: _277  and  _279
REMARK  123  A    between atoms: _279  and  _280
REMARK  124  A    between atoms: _279  and  _282
REMARK  125  A    between atoms: _282  and  _283
REMARK  126  A    between atoms: _286  and  _288
REMARK  127  A    between atoms: _288  and  _289
REMARK  128  A    between atoms: _291  and  _293
REMARK  129  A    between atoms: _293  and  _294
REMARK  130  A    between atoms: _293  and  _296
REMARK  131  A    between atoms: _296  and  _297
REMARK  132  A    between atoms: _300  and  _302
REMARK  133  A    between atoms: _302  and  _303
REMARK  134  A    between atoms: _302  and  _305
REMARK  135  A    between atoms: _305  and  _306
REMARK  136  A    between atoms: _306  and  _307
REMARK  137  A    between atoms: _307  and  _308
REMARK  138  A    between atoms: _308  and  _309
REMARK  139  A    between atoms: _313  and  _315
REMARK  140  A    between atoms: _315  and  _316
REMARK  141  A    between atoms: _318  and  _320
REMARK  142  A    between atoms: _320  and  _321
REMARK  143  A    between atoms: _320  and  _323
REMARK  144  A    between atoms: _323  and  _324
REMARK  145  A    between atoms: _330  and  _332
REMARK  146  A    between atoms: _332  and  _333
REMARK  147  A    between atoms: _335  and  _337
REMARK  148  A    between atoms: _337  and  _338
REMARK  149  A    between atoms: _337  and  _340
REMARK  150  A    between atoms: _343  and  _345
REMARK  151  A    between atoms: _345  and  _346
REMARK  152  A    between atoms: _348  and  _350
REMARK  153  A    between atoms: _350  and  _351
REMARK  154  A    between atoms: _350  and  _353
REMARK  155  A    between atoms: _353  and  _354
REMARK  156  A    between atoms: _360  and  _362
REMARK  157  A    between atoms: _362  and  _363
REMARK  158  A    between atoms: _362  and  _365
REMARK  159  A    between atoms: _365  and  _366
REMARK  160  A    between atoms: _371  and  _372
REMARK  161  A    between atoms: _374  and  _376
REMARK  162  A    between atoms: _376  and  _377
REMARK  163  A    between atoms: _376  and  _379
REMARK  164  A    between atoms: _379  and  _380
REMARK  165  A    between atoms: _382  and  _384
REMARK  166  A    between atoms: _384  and  _385
REMARK  167  A    between atoms: _388  and  _390
REMARK  168  A    between atoms: _390  and  _391
REMARK  169  A    between atoms: _390  and  _393
REMARK  170  A    between atoms: _396  and  _398
REMARK  171  A    between atoms: _398  and  _399
REMARK  172  A    between atoms: _398  and  _401
REMARK  173  A    between atoms: _404  and  _406
REMARK  174  A    between atoms: _406  and  _407
REMARK  175  A    between atoms: _406  and  _409
REMARK  176  A    between atoms: _409  and  _410
REMARK  177  A    between atoms: _413  and  _415
REMARK  178  A    between atoms: _415  and  _416
REMARK  179  A    between atoms: _415  and  _418
REMARK  180  A    between atoms: _418  and  _419
REMARK  181  A    between atoms: _422  and  _424
REMARK  182  A    between atoms: _424  and  _425
REMARK  183  A    between atoms: _424  and  _427
REMARK  184  A    between atoms: _427  and  _428
REMARK  185  A    between atoms: _428  and  _429
REMARK  186  A    between atoms: _429  and  _430
REMARK  187  A    between atoms: _430  and  _431
REMARK  188  A    between atoms: _435  and  _437
REMARK  189  A    between atoms: _437  and  _438
REMARK  190  A    between atoms: _437  and  _440
REMARK  191  A    between atoms: _440  and  _441
REMARK  192  A    between atoms: _446  and  _448
REMARK  193  A    between atoms: _448  and  _449
REMARK  194  A    between atoms: _448  and  _451
REMARK  195  A    between atoms: _451  and  _452
REMARK  196  A    between atoms: _457  and  _459
REMARK  197  A    between atoms: _459  and  _460
REMARK  198  A    between atoms: _459  and  _462
REMARK  199  A    between atoms: _462  and  _463
REMARK  200  A    between atoms: _466  and  _468
REMARK  201  A    between atoms: _468  and  _469
REMARK  202  A    between atoms: _471  and  _473
REMARK  203  A    between atoms: _473  and  _474
REMARK  204  A    between atoms: _473  and  _476
REMARK  205  A    between atoms: _476  and  _477
REMARK  206  A    between atoms: _480  and  _482
REMARK  207  A    between atoms: _482  and  _483
REMARK  208  A    between atoms: _482  and  _485
REMARK  209  A    between atoms: _485  and  _486
REMARK  210  A    between atoms: _486  and  _487
REMARK  211  A    between atoms: _487  and  _488
REMARK  212  A    between atoms: _488  and  _489
REMARK  213  A    between atoms: _493  and  _495
REMARK  214  A    between atoms: _495  and  _496
REMARK  215  A    between atoms: _495  and  _498
REMARK                            x       y       z     vdW  Elec       q    Type
REMARK                         _______ _______ _______ _____ _____    ______ ____
ROOT
ATOM      1  CA  GLU A   1      -3.584  16.010  11.180  0.00  0.00    +0.134 C 
ENDROOT
BRANCH   1   2
ATOM      2  N   GLU A   1      -2.623  15.953  10.073  0.00  0.00    -0.239 NA
ATOM      3  H   GLU A   1      -1.917  15.191  10.018  0.00  0.00    +0.142 HD
ENDBRANCH   1   2
BRANCH   1   4
ATOM      4  C   GLU A   1      -3.460  17.324  11.979  0.00  0.00    +0.224 C 
ATOM      5  O   GLU A   1      -4.477  17.888  12.432  0.00  0.00    -0.287 OA
ENDBRANCH   1   4
BRANCH   1   6
ATOM      6  CB  GLU A   1      -3.461  14.754  12.041  0.00  0.00    +0.037 C 
BRANCH   6   7
ATOM      7  CG  GLU A   1      -4.226  14.832  13.346  0.00  0.00    +0.116 C 
BRANCH   7   8
ATOM      8  CD  GLU A   1      -4.603  13.470  13.890  0.00  0.00    +0.365 C 
ATOM      9  OE2 GLU A   1      -5.247  13.438  14.961  0.00  0.00    -0.246 OA
ATOM     10  OE1 GLU A   1      -4.281  12.440  13.245  0.00  0.00    -0.246 OA
ENDBRANCH   7   8
ENDBRANCH   6   7
ENDBRANCH   1   6
TORSDOF 5
REMARK  Name = ../refined-set-2016/4b7p/4b7p_pocket.pdb
REMARK  215 active torsions:
REMARK  status: ('A' for Active; 'I' for Inactive)
REMARK    1  A    between atoms: _1  and  _3
REMARK    2  A    between atoms: _3  and  _4
REMARK    3  A    between atoms: _3  and  _6
REMARK    4  A    between atoms: _6  and  _7
REMARK    5  A    between atoms: _10  and  _12
REMARK    6  A    between atoms: _12  and  _13
REMARK    7  A    between atoms: _12  and  _15
REMARK    8  A    between atoms: _15  and  _16
REMARK    9  A    between atoms: _22  and  _24
REMARK   10  A    between atoms: _24  and  _25
REMARK   11  A    between atoms: _24  and  _27
REMARK   12  A    between atoms: _27  and  _28
REMARK   13  A    between atoms: _31  and  _33
REMARK   14  A    between atoms: _33  and  _34
REMARK   15  A    between atoms: _33  and  _36
REMARK   16  A    between atoms: _36  and  _37
REMARK   17  A    between atoms: _37  and  _38
REMARK   18  A    between atoms: _41  and  _43
REMARK   19  A    between atoms: _43  and  _44
REMARK   20  A    between atoms: _43  and  _46
REMARK   21  A    between atoms: _46  and  _47
REMARK   22  A    between atoms: _50  and  _52
REMARK   23  A    between atoms: _52  and  _53
REMARK   24  A    between atoms: _52  and  _55
REMARK   25  A    between atoms: _55  and  _56
REMARK   26  A    between atoms: _59  and  _61
REMARK   27  A    between atoms: _61  and  _62
REMARK   28  A    between atoms: _61  and  _64
REMARK   29  A    between atoms: _64  and  _65
REMARK   30  A    between atoms: _67  and  _69
REMARK   31  A    between atoms: _69  and  _70
REMARK   32  A    between atoms: _69  and  _72
REMARK   33  A    between atoms: _72  and  _73
REMARK   34  A    between atoms: _78  and  _80
REMARK   35  A    between atoms: _80  and  _81
REMARK   36  A    between atoms: _80  and  _83
REMARK   37  A    between atoms: _83  and  _84
REMARK   38  A    between atoms: _86  and  _88
REMARK   39  A    between atoms: _88  and  _89
REMARK   40  A    between atoms: _88  and  _91
REMARK   41  A    between atoms: _91  and  _92
REMARK   42  A    between atoms: _94  and  _96
REMARK   43  A    between atoms: _96  and  _97
REMARK   44  A    between atoms: _96  and  _99
REMARK   45  A    between atoms: _99  and  _100
REMARK   46  A    between atoms: _103  and  _105
REMARK   47  A    between atoms: _105  and  _106
REMARK   48  A    between atoms: _109  and  _111
REMARK   49  A    between atoms: _111  and  _112
REMARK   50  A    between atoms: _111  and  _114
REMARK   51  A    between atoms: _114  and  _115
REMARK   52  A    between atoms: _118  and  _120
REMARK   53  A    between atoms: _120  and  _121
REMARK   54  A    between atoms: _120  and  _123
REMARK   55  A    between atoms: _123  and  _124
REMARK   56  A    between atoms: _127  and  _129
REMARK   57  A    between atoms: _129  and  _130
REMARK   58  A    between atoms: _129  and  _132
REMARK   59  A    between atoms: _132  and  _133
REMARK   60  A    between atoms: _133  and  _134
REMARK   61  A    between atoms: _134  and  _135
REMARK   62  A    between atoms: _135  and  _136
REMARK   63  A    between atoms: _140  and  _142
REMARK   64  A    between atoms: _142  and  _143
REMARK   65  A    between atoms: _142  and  _145
REMARK   66  A    between atoms: _145  and  _146
REMARK   67  A    between atoms: _149  and  _151
REMARK   68  A    between atoms: _151  and  _152
REMARK   69  A    between atoms: _151  and  _154
REMARK   70  A    between atoms: _154  and  _155
REMARK   71  A    between atoms: _155  and  _156
REMARK   72  A    between atoms: _159  and  _161
REMARK   73  A    between atoms: _161  and  _162
REMARK   74  A    between atoms: _161  and  _164
REMARK   75  A    between atoms: _164  and  _165
REMARK   76  A    between atoms: _168  and  _170
REMARK   77  A    between atoms: _170  and  _171
REMARK   78  A    between atoms: _170  and  _173
REMARK   79  A    between atoms: _176  and  _178
REMARK   80  A    between atoms: _178  and  _179
REMARK   81  A    between atoms: _178  and  _181
REMARK   82  A    between atoms: _181  and  _182
REMARK   83  A    between atoms: _185  and  _187
REMARK   84  A    between atoms: _187  and  _188
REMARK   85  A    between atoms: _187  and  _190
REMARK   86  A    between atoms: _190  and  _191
REMARK   87  A    between atoms: _194  and  _196
REMARK   88  A    between atoms: _196  and  _197
REMARK   89  A    between atoms: _199  and  _201
REMARK   90  A    between atoms: _201  and  _202
REMARK   91  A    between atoms: _201  and  _204
REMARK   92  A    between atoms: _204  and  _205
REMARK   93  A    between atoms: _208  and  _210
REMARK   94  A    between atoms: _210  and  _211
REMARK   95  A    between atoms: _213  and  _215
REMARK   96  A    between atoms: _215  and  _216
REMARK   97  A    between atoms: _215  and  _218
REMARK   98  A    between atoms: _218  and  _219
REMARK   99  A    between atoms: _219  and  _220
REMARK  100  A    between atoms: _222  and  _224
REMARK  101  A    between atoms: _224  and  _225
REMARK  102  A    between atoms: _224  and  _227
REMARK  103  A    between atoms: _227  and  _228
REMARK  104  A    between atoms: _231  and  _233
REMARK  105  A    between atoms: _233  and  _234
REMARK  106  A    between atoms: _237  and  _239
REMARK  107  A    between atoms: _239  and  _240
REMARK  108  A    between atoms: _239  and  _242
REMARK  109  A    between atoms: _242  and  _243
REMARK  110  A    between atoms: _246  and  _248
REMARK  111  A    between atoms: _248  and  _249
REMARK  112  A    between atoms: _248  and  _251
REMARK  113  A    between atoms: _251  and  _252
REMARK  114  A    between atoms: _255  and  _257
REMARK  115  A    between atoms: _257  and  _258
REMARK  116  A    between atoms: _257  and  _260
REMARK  117  A    between atoms: _260  and  _261
REMARK  118  A    between atoms: _266  and  _268
REMARK  119  A    between atoms: _268  and  _269
REMARK  120  A    between atoms: _268  and  _271
REMARK  121  A    between atoms: _271  and  _272
REMARK  122  A    between atoms: _277  and  _279
REMARK  123  A    between atoms: _279  and  _280
REMARK  124  A    between atoms: _279  and  _282
REMARK  125  A    between atoms: _282  and  _283
REMARK  126  A    between atoms: _286  and  _288
REMARK  127  A    between atoms: _288  and  _289
REMARK  128  A    between atoms: _291  and  _293
REMARK  129  A    between atoms: _293  and  _294
REMARK  130  A    between atoms: _293  and  _296
REMARK  131  A    between atoms: _296  and  _297
REMARK  132  A    between atoms: _300  and  _302
REMARK  133  A    between atoms: _302  and  _303
REMARK  134  A    between atoms: _302  and  _305
REMARK  135  A    between atoms: _305  and  _306
REMARK  136  A    between atoms: _306  and  _307
REMARK  137  A    between atoms: _307  and  _308
REMARK  138  A    between atoms: _308  and  _309
REMARK  139  A    between atoms: _313  and  _315
REMARK  140  A    between atoms: _315  and  _316
REMARK  141  A    between atoms: _318  and  _320
REMARK  142  A    between atoms: _320  and  _321
REMARK  143  A    between atoms: _320  and  _323
REMARK  144  A    between atoms: _323  and  _324
REMARK  145  A    between atoms: _330  and  _332
REMARK  146  A    between atoms: _332  and  _333
REMARK  147  A    between atoms: _335  and  _337
REMARK  148  A    between atoms: _337  and  _338
REMARK  149  A    between atoms: _337  and  _340
REMARK  150  A    between atoms: _343  and  _345
REMARK  151  A    between atoms: _345  and  _346
REMARK  152  A    between atoms: _348  and  _350
REMARK  153  A    between atoms: _350  and  _351
REMARK  154  A    between atoms: _350  and  _353
REMARK  155  A    between atoms: _353  and  _354
REMARK  156  A    between atoms: _360  and  _362
REMARK  157  A    between atoms: _362  and  _363
REMARK  158  A    between atoms: _362  and  _365
REMARK  159  A    between atoms: _365  and  _366
REMARK  160  A    between atoms: _371  and  _372
REMARK  161  A    between atoms: _374  and  _376
REMARK  162  A    between atoms: _376  and  _377
REMARK  163  A    between atoms: _376  and  _379
REMARK  164  A    between atoms: _379  and  _380
REMARK  165  A    between atoms: _382  and  _384
REMARK  166  A    between atoms: _384  and  _385
REMARK  167  A    between atoms: _388  and  _390
REMARK  168  A    between atoms: _390  and  _391
REMARK  169  A    between atoms: _390  and  _393
REMARK  170  A    between atoms: _396  and  _398
REMARK  171  A    between atoms: _398  and  _399
REMARK  172  A    between atoms: _398  and  _401
REMARK  173  A    between atoms: _404  and  _406
REMARK  174  A    between atoms: _406  and  _407
REMARK  175  A    between atoms: _406  and  _409
REMARK  176  A    between atoms: _409  and  _410
REMARK  177  A    between atoms: _413  and  _415
REMARK  178  A    between atoms: _415  and  _416
REMARK  179  A    between atoms: _415  and  _418
REMARK  180  A    between atoms: _418  and  _419
REMARK  181  A    between atoms: _422  and  _424
REMARK  182  A    between atoms: _424  and  _425
REMARK  183  A    between atoms: _424  and  _427
REMARK  184  A    between atoms: _427  and  _428
REMARK  185  A    between atoms: _428  and  _429
REMARK  186  A    between atoms: _429  and  _430
REMARK  187  A    between atoms: _430  and  _431
REMARK  188  A    between atoms: _435  and  _437
REMARK  189  A    between atoms: _437  and  _438
REMARK  190  A    between atoms: _437  and  _440
REMARK  191  A    between atoms: _440  and  _441
REMARK  192  A    between atoms: _446  and  _448
REMARK  193  A    between atoms: _448  and  _449
REMARK  194  A    between atoms: _448  and  _451
REMARK  195  A    between atoms: _451  and  _452
REMARK  196  A    between atoms: _457  and  _459
REMARK  197  A    between atoms: _459  and  _460
REMARK  198  A    between atoms: _459  and  _462
REMARK  199  A    between atoms: _462  and  _463
REMARK  200  A    between atoms: _466  and  _468
REMARK  201  A    between atoms: _468  and  _469
REMARK  202  A    between atoms: _471  and  _473
REMARK  203  A    between atoms: _473  and  _474
REMARK  204  A    between atoms: _473  and  _476
REMARK  205  A    between atoms: _476  and  _477
REMARK  206  A    between atoms: _480  and  _482
REMARK  207  A    between atoms: _482  and  _483
REMARK  208  A    between atoms: _482  and  _485
REMARK  209  A    between atoms: _485  and  _486
REMARK  210  A    between atoms: _486  and  _487
REMARK  211  A    between atoms: _487  and  _488
REMARK  212  A    between atoms: _488  and  _489
REMARK  213  A    between atoms: _493  and  _495
REMARK  214  A    between atoms: _495  and  _496
REMARK  215  A    between atoms: _495  and  _498
REMARK                            x       y       z     vdW  Elec       q    Type
REMARK                         _______ _______ _______ _____ _____    ______ ____
ROOT
ATOM      1  C   THR A   4       6.846  11.869  14.729  0.00  0.00    +0.243 C 
ATOM      2  O   THR A   4       6.078  12.845  14.758  0.00  0.00    -0.273 OA
ATOM      3  N   GLY A   5       6.582  10.762  14.017  0.00  0.00    -0.295 N 
ATOM      4  H   GLY A   5       7.253   9.968  14.023  0.00  0.00    +0.150 HD
ENDROOT
BRANCH   3   5
ATOM      5  CA  GLY A   5       5.350  10.672  13.232  0.00  0.00    +0.176 C 
BRANCH   5   6
ATOM      6  C   GLY A   5       4.123  10.407  14.117  0.00  0.00    +0.243 C 
ATOM      7  O   GLY A   5       4.143  10.574  15.329  0.00  0.00    -0.273 OA
ATOM      8  N   ILE A   6       3.019  10.007  13.489  0.00  0.00    -0.297 N 
ATOM      9  H   ILE A   6       3.063   9.770  12.477  0.00  0.00    +0.150 HD
BRANCH   8  10
ATOM     10  CA  ILE A   6       1.764   9.898  14.190  0.00  0.00    +0.149 C 
BRANCH  10  11
ATOM     11  C   ILE A   6       1.738   8.760  15.231  0.00  0.00    +0.241 C 
ATOM     12  O   ILE A   6       0.987   8.812  16.200  0.00  0.00    -0.273 OA
ATOM     13  N   GLY A   7       2.601   7.761  15.052  0.00  0.00    -0.295 N 
ATOM     14  H   GLY A   7       3.256   7.774  14.244  0.00  0.00    +0.150 HD
BRANCH  13  15
ATOM     15  CA  GLY A   7       2.622   6.642  16.001  0.00  0.00    +0.176 C 
BRANCH  15  16
ATOM     16  C   GLY A   7       1.509   5.638  15.746  0.00  0.00    +0.243 C 
ATOM     17  N   MET A   8       1.566   4.507  16.443  0.00  0.00    -0.297 N 
ATOM     18  H   MET A   8       2.326   4.390  17.143  0.00  0.00    +0.150 HD
ATOM     19  O   GLY A   7       0.620   5.876  14.927  0.00  0.00    -0.273 OA
BRANCH  17  20
ATOM     20  CA  MET A   8       0.607   3.425  16.266  0.00  0.00    +0.149 C 
BRANCH  20  21
ATOM     21  C   MET A   8      -0.043   3.126  17.607  0.00  0.00    +0.241 C 
ATOM     22  O   MET A   8       0.613   3.129  18.652  0.00  0.00    -0.273 OA
ATOM     23  N   THR A   9      -1.332   2.837  17.578  0.00  0.00    -0.296 N 
ATOM     24  H   THR A   9      -1.875   2.994  16.705  0.00  0.00    +0.150 HD
BRANCH  23  25
ATOM     25  CA  THR A   9      -2.008   2.296  18.768  0.00  0.00    +0.164 C 
BRANCH  25  26
ATOM     26  CB  THR A   9      -3.538   2.403  18.607  0.00  0.00    +0.136 C 
ATOM     27  CG2 THR A   9      -3.977   3.819  18.268  0.00  0.00    +0.034 C 
BRANCH  26  28
ATOM     28  OG1 THR A   9      -3.960   1.561  17.548  0.00  0.00    -0.382 OA
ATOM     29  HG1 THR A   9      -4.942   1.630  17.445  0.00  0.00    +0.210 HD
ENDBRANCH  26  28
ENDBRANCH  25  26
BRANCH  25  30
ATOM     30  C   THR A   9      -1.678   0.813  18.924  0.00  0.00    +0.229 C 
ATOM     31  O   THR A   9      -1.067   0.184  18.036  0.00  0.00    -0.286 OA
ENDBRANCH  25  30
ENDBRANCH  23  25
ENDBRANCH  20  21
BRANCH  20  32
ATOM     32  CB  MET A   8       1.272   2.134  15.731  0.00  0.00    +0.041 C 
BRANCH  32  33
ATOM     33  CG  MET A   8       1.573   2.267  14.235  0.00  0.00    +0.060 C 
BRANCH  33  34
ATOM     34  SD  MET A   8       2.457   0.817  13.623  0.00  0.00    -0.139 S 
ATOM     35  CE  MET A   8       4.137   1.275  14.011  0.00  0.00    +0.069 C 
ENDBRANCH  33  34
ENDBRANCH  32  33
ENDBRANCH  20  32
ENDBRANCH  17  20
ENDBRANCH  15  16
ENDBRANCH  13  15
ENDBRANCH  10  11
BRANCH  10  36
ATOM     36  CB  ILE A   6       0.642   9.754  13.138  0.00  0.00    +0.027 C 
ATOM     37  CG2 ILE A   6       0.787   8.402  12.433  0.00  0.00    +0.002 C 
BRANCH  36  38
ATOM     38  CG1 ILE A   6      -0.739   9.885  13.798  0.00  0.00    +0.002 C 
ATOM     39  CD1 ILE A   6      -1.767  10.448  12.818  0.00  0.00    +0.000 C 
ENDBRANCH  36  38
ENDBRANCH  10  36
ENDBRANCH   8  10
ENDBRANCH   5   6
ENDBRANCH   3   5
BRANCH   1  40
ATOM     40  CA  THR A   4       8.102  11.782  15.575  0.00  0.00    +0.176 C 
BRANCH  40  43
ATOM     41  C   ASP A   3       9.553   9.938  14.958  0.00  0.00    +0.241 C 
ATOM     42  O   ASP A   3       9.189   9.280  15.914  0.00  0.00    -0.273 OA
ATOM     43  N   THR A   4       9.118  11.196  14.731  0.00  0.00    -0.295 N 
ATOM     44  H   THR A   4       9.517  11.747  13.944  0.00  0.00    +0.150 HD
BRANCH  41  45
ATOM     45  CA  ASP A   3      10.558   9.371  14.023  0.00  0.00    +0.160 C 
BRANCH  45  47
ATOM     46  C   VAL A   2      12.571   8.197  14.677  0.00  0.00    +0.241 C 
ATOM     47  N   ASP A   3      11.241   8.240  14.705  0.00  0.00    -0.297 N 
ATOM     48  H   ASP A   3      10.694   7.502  15.191  0.00  0.00    +0.150 HD
ATOM     49  O   VAL A   2      13.252   8.987  14.032  0.00  0.00    -0.273 OA
BRANCH  46  50
ATOM     50  CA  VAL A   2      13.260   7.137  15.530  0.00  0.00    +0.148 C 
BRANCH  50  52
ATOM     51  C   ILE A   1      14.304   5.245  14.398  0.00  0.00    +0.238 C 
ATOM     52  N   VAL A   2      14.312   6.548  14.727  0.00  0.00    -0.297 N 
ATOM     53  H   VAL A   2      15.094   7.149  14.397  0.00  0.00    +0.150 HD
ATOM     54  O   ILE A   1      13.374   4.484  14.698  0.00  0.00    -0.274 OA
BRANCH  51  55
ATOM     55  CA  ILE A   1      15.498   4.705  13.601  0.00  0.00    +0.145 C 
BRANCH  55  56
ATOM     56  N   ILE A   1      15.985   3.643  14.463  0.00  0.00    -0.238 NA
ATOM     57  H   ILE A   1      15.369   2.843  14.713  0.00  0.00    +0.142 HD
ENDBRANCH  55  56
BRANCH  55  58
ATOM     58  CB  ILE A   1      15.059   4.172  12.218  0.00  0.00    +0.025 C 
ATOM     59  CG2 ILE A   1      14.490   5.345  11.385  0.00  0.00    +0.002 C 
BRANCH  58  60
ATOM     60  CG1 ILE A   1      16.241   3.485  11.442  0.00  0.00    +0.002 C 
ATOM     61  CD1 ILE A   1      16.521   2.042  11.933  0.00  0.00    +0.000 C 
ENDBRANCH  58  60
ENDBRANCH  55  58
ENDBRANCH  51  55
ENDBRANCH  50  52
BRANCH  50  62
ATOM     62  CB  VAL A   2      13.825   7.826  16.808  0.00  0.00    +0.027 C 
ATOM     63  CG2 VAL A   2      14.569   6.797  17.649  0.00  0.00    +0.002 C 
ATOM     64  CG1 VAL A   2      12.680   8.424  17.622  0.00  0.00    +0.002 C 
ENDBRANCH  50  62
ENDBRANCH  46  50
ENDBRANCH  45  47
BRANCH  45  65
ATOM     65  CB  ASP A   3       9.917   8.932  12.672  0.00  0.00    +0.143 C 
BRANCH  65  66
ATOM     66  CG  ASP A   3       8.813   7.954  12.839  0.00  0.00    +0.367 C 
ATOM     67  OD2 ASP A   3       7.817   8.255  13.503  0.00  0.00    -0.246 OA
ATOM     68  OD1 ASP A   3       8.952   6.820  12.323  0.00  0.00    -0.246 OA
ENDBRANCH  65  66
ENDBRANCH  45  65
ENDBRANCH  41  45
ENDBRANCH  40  43
BRANCH  40  69
ATOM     69  CB  THR A   4       8.576  13.179  16.047  0.00  0.00    +0.137 C 
ATOM     70  CG2 THR A   4       9.791  12.998  16.948  0.00  0.00    +0.034 C 
BRANCH  69  71
ATOM     71  OG1 THR A   4       9.008  13.937  14.895  0.00  0.00    -0.382 OA
ATOM     72  HG1 THR A   4       9.313  14.833  15.186  0.00  0.00    +0.210 HD
ENDBRANCH  69  71
ENDBRANCH  40  69
ENDBRANCH   1  40
TORSDOF 32
REMARK  Name = ../refined-set-2016/4b7p/4b7p_pocket.pdb
REMARK  215 active torsions:
REMARK  status: ('A' for Active; 'I' for Inactive)
REMARK    1  A    between atoms: _1  and  _3
REMARK    2  A    between atoms: _3  and  _4
REMARK    3  A    between atoms: _3  and  _6
REMARK    4  A    between atoms: _6  and  _7
REMARK    5  A    between atoms: _10  and  _12
REMARK    6  A    between atoms: _12  and  _13
REMARK    7  A    between atoms: _12  and  _15
REMARK    8  A    between atoms: _15  and  _16
REMARK    9  A    between atoms: _22  and  _24
REMARK   10  A    between atoms: _24  and  _25
REMARK   11  A    between atoms: _24  and  _27
REMARK   12  A    between atoms: _27  and  _28
REMARK   13  A    between atoms: _31  and  _33
REMARK   14  A    between atoms: _33  and  _34
REMARK   15  A    between atoms: _33  and  _36
REMARK   16  A    between atoms: _36  and  _37
REMARK   17  A    between atoms: _37  and  _38
REMARK   18  A    between atoms: _41  and  _43
REMARK   19  A    between atoms: _43  and  _44
REMARK   20  A    between atoms: _43  and  _46
REMARK   21  A    between atoms: _46  and  _47
REMARK   22  A    between atoms: _50  and  _52
REMARK   23  A    between atoms: _52  and  _53
REMARK   24  A    between atoms: _52  and  _55
REMARK   25  A    between atoms: _55  and  _56
REMARK   26  A    between atoms: _59  and  _61
REMARK   27  A    between atoms: _61  and  _62
REMARK   28  A    between atoms: _61  and  _64
REMARK   29  A    between atoms: _64  and  _65
REMARK   30  A    between atoms: _67  and  _69
REMARK   31  A    between atoms: _69  and  _70
REMARK   32  A    between atoms: _69  and  _72
REMARK   33  A    between atoms: _72  and  _73
REMARK   34  A    between atoms: _78  and  _80
REMARK   35  A    between atoms: _80  and  _81
REMARK   36  A    between atoms: _80  and  _83
REMARK   37  A    between atoms: _83  and  _84
REMARK   38  A    between atoms: _86  and  _88
REMARK   39  A    between atoms: _88  and  _89
REMARK   40  A    between atoms: _88  and  _91
REMARK   41  A    between atoms: _91  and  _92
REMARK   42  A    between atoms: _94  and  _96
REMARK   43  A    between atoms: _96  and  _97
REMARK   44  A    between atoms: _96  and  _99
REMARK   45  A    between atoms: _99  and  _100
REMARK   46  A    between atoms: _103  and  _105
REMARK   47  A    between atoms: _105  and  _106
REMARK   48  A    between atoms: _109  and  _111
REMARK   49  A    between atoms: _111  and  _112
REMARK   50  A    between atoms: _111  and  _114
REMARK   51  A    between atoms: _114  and  _115
REMARK   52  A    between atoms: _118  and  _120
REMARK   53  A    between atoms: _120  and  _121
REMARK   54  A    between atoms: _120  and  _123
REMARK   55  A    between atoms: _123  and  _124
REMARK   56  A    between atoms: _127  and  _129
REMARK   57  A    between atoms: _129  and  _130
REMARK   58  A    between atoms: _129  and  _132
REMARK   59  A    between atoms: _132  and  _133
REMARK   60  A    between atoms: _133  and  _134
REMARK   61  A    between atoms: _134  and  _135
REMARK   62  A    between atoms: _135  and  _136
REMARK   63  A    between atoms: _140  and  _142
REMARK   64  A    between atoms: _142  and  _143
REMARK   65  A    between atoms: _142  and  _145
REMARK   66  A    between atoms: _145  and  _146
REMARK   67  A    between atoms: _149  and  _151
REMARK   68  A    between atoms: _151  and  _152
REMARK   69  A    between atoms: _151  and  _154
REMARK   70  A    between atoms: _154  and  _155
REMARK   71  A    between atoms: _155  and  _156
REMARK   72  A    between atoms: _159  and  _161
REMARK   73  A    between atoms: _161  and  _162
REMARK   74  A    between atoms: _161  and  _164
REMARK   75  A    between atoms: _164  and  _165
REMARK   76  A    between atoms: _168  and  _170
REMARK   77  A    between atoms: _170  and  _171
REMARK   78  A    between atoms: _170  and  _173
REMARK   79  A    between atoms: _176  and  _178
REMARK   80  A    between atoms: _178  and  _179
REMARK   81  A    between atoms: _178  and  _181
REMARK   82  A    between atoms: _181  and  _182
REMARK   83  A    between atoms: _185  and  _187
REMARK   84  A    between atoms: _187  and  _188
REMARK   85  A    between atoms: _187  and  _190
REMARK   86  A    between atoms: _190  and  _191
REMARK   87  A    between atoms: _194  and  _196
REMARK   88  A    between atoms: _196  and  _197
REMARK   89  A    between atoms: _199  and  _201
REMARK   90  A    between atoms: _201  and  _202
REMARK   91  A    between atoms: _201  and  _204
REMARK   92  A    between atoms: _204  and  _205
REMARK   93  A    between atoms: _208  and  _210
REMARK   94  A    between atoms: _210  and  _211
REMARK   95  A    between atoms: _213  and  _215
REMARK   96  A    between atoms: _215  and  _216
REMARK   97  A    between atoms: _215  and  _218
REMARK   98  A    between atoms: _218  and  _219
REMARK   99  A    between atoms: _219  and  _220
REMARK  100  A    between atoms: _222  and  _224
REMARK  101  A    between atoms: _224  and  _225
REMARK  102  A    between atoms: _224  and  _227
REMARK  103  A    between atoms: _227  and  _228
REMARK  104  A    between atoms: _231  and  _233
REMARK  105  A    between atoms: _233  and  _234
REMARK  106  A    between atoms: _237  and  _239
REMARK  107  A    between atoms: _239  and  _240
REMARK  108  A    between atoms: _239  and  _242
REMARK  109  A    between atoms: _242  and  _243
REMARK  110  A    between atoms: _246  and  _248
REMARK  111  A    between atoms: _248  and  _249
REMARK  112  A    between atoms: _248  and  _251
REMARK  113  A    between atoms: _251  and  _252
REMARK  114  A    between atoms: _255  and  _257
REMARK  115  A    between atoms: _257  and  _258
REMARK  116  A    between atoms: _257  and  _260
REMARK  117  A    between atoms: _260  and  _261
REMARK  118  A    between atoms: _266  and  _268
REMARK  119  A    between atoms: _268  and  _269
REMARK  120  A    between atoms: _268  and  _271
REMARK  121  A    between atoms: _271  and  _272
REMARK  122  A    between atoms: _277  and  _279
REMARK  123  A    between atoms: _279  and  _280
REMARK  124  A    between atoms: _279  and  _282
REMARK  125  A    between atoms: _282  and  _283
REMARK  126  A    between atoms: _286  and  _288
REMARK  127  A    between atoms: _288  and  _289
REMARK  128  A    between atoms: _291  and  _293
REMARK  129  A    between atoms: _293  and  _294
REMARK  130  A    between atoms: _293  and  _296
REMARK  131  A    between atoms: _296  and  _297
REMARK  132  A    between atoms: _300  and  _302
REMARK  133  A    between atoms: _302  and  _303
REMARK  134  A    between atoms: _302  and  _305
REMARK  135  A    between atoms: _305  and  _306
REMARK  136  A    between atoms: _306  and  _307
REMARK  137  A    between atoms: _307  and  _308
REMARK  138  A    between atoms: _308  and  _309
REMARK  139  A    between atoms: _313  and  _315
REMARK  140  A    between atoms: _315  and  _316
REMARK  141  A    between atoms: _318  and  _320
REMARK  142  A    between atoms: _320  and  _321
REMARK  143  A    between atoms: _320  and  _323
REMARK  144  A    between atoms: _323  and  _324
REMARK  145  A    between atoms: _330  and  _332
REMARK  146  A    between atoms: _332  and  _333
REMARK  147  A    between atoms: _335  and  _337
REMARK  148  A    between atoms: _337  and  _338
REMARK  149  A    between atoms: _337  and  _340
REMARK  150  A    between atoms: _343  and  _345
REMARK  151  A    between atoms: _345  and  _346
REMARK  152  A    between atoms: _348  and  _350
REMARK  153  A    between atoms: _350  and  _351
REMARK  154  A    between atoms: _350  and  _353
REMARK  155  A    between atoms: _353  and  _354
REMARK  156  A    between atoms: _360  and  _362
REMARK  157  A    between atoms: _362  and  _363
REMARK  158  A    between atoms: _362  and  _365
REMARK  159  A    between atoms: _365  and  _366
REMARK  160  A    between atoms: _371  and  _372
REMARK  161  A    between atoms: _374  and  _376
REMARK  162  A    between atoms: _376  and  _377
REMARK  163  A    between atoms: _376  and  _379
REMARK  164  A    between atoms: _379  and  _380
REMARK  165  A    between atoms: _382  and  _384
REMARK  166  A    between atoms: _384  and  _385
REMARK  167  A    between atoms: _388  and  _390
REMARK  168  A    between atoms: _390  and  _391
REMARK  169  A    between atoms: _390  and  _393
REMARK  170  A    between atoms: _396  and  _398
REMARK  171  A    between atoms: _398  and  _399
REMARK  172  A    between atoms: _398  and  _401
REMARK  173  A    between atoms: _404  and  _406
REMARK  174  A    between atoms: _406  and  _407
REMARK  175  A    between atoms: _406  and  _409
REMARK  176  A    between atoms: _409  and  _410
REMARK  177  A    between atoms: _413  and  _415
REMARK  178  A    between atoms: _415  and  _416
REMARK  179  A    between atoms: _415  and  _418
REMARK  180  A    between atoms: _418  and  _419
REMARK  181  A    between atoms: _422  and  _424
REMARK  182  A    between atoms: _424  and  _425
REMARK  183  A    between atoms: _424  and  _427
REMARK  184  A    between atoms: _427  and  _428
REMARK  185  A    between atoms: _428  and  _429
REMARK  186  A    between atoms: _429  and  _430
REMARK  187  A    between atoms: _430  and  _431
REMARK  188  A    between atoms: _435  and  _437
REMARK  189  A    between atoms: _437  and  _438
REMARK  190  A    between atoms: _437  and  _440
REMARK  191  A    between atoms: _440  and  _441
REMARK  192  A    between atoms: _446  and  _448
REMARK  193  A    between atoms: _448  and  _449
REMARK  194  A    between atoms: _448  and  _451
REMARK  195  A    between atoms: _451  and  _452
REMARK  196  A    between atoms: _457  and  _459
REMARK  197  A    between atoms: _459  and  _460
REMARK  198  A    between atoms: _459  and  _462
REMARK  199  A    between atoms: _462  and  _463
REMARK  200  A    between atoms: _466  and  _468
REMARK  201  A    between atoms: _468  and  _469
REMARK  202  A    between atoms: _471  and  _473
REMARK  203  A    between atoms: _473  and  _474
REMARK  204  A    between atoms: _473  and  _476
REMARK  205  A    between atoms: _476  and  _477
REMARK  206  A    between atoms: _480  and  _482
REMARK  207  A    between atoms: _482  and  _483
REMARK  208  A    between atoms: _482  and  _485
REMARK  209  A    between atoms: _485  and  _486
REMARK  210  A    between atoms: _486  and  _487
REMARK  211  A    between atoms: _487  and  _488
REMARK  212  A    between atoms: _488  and  _489
REMARK  213  A    between atoms: _493  and  _495
REMARK  214  A    between atoms: _495  and  _496
REMARK  215  A    between atoms: _495  and  _498
REMARK                            x       y       z     vdW  Elec       q    Type
REMARK                         _______ _______ _______ _____ _____    ______ ____
ROOT
ATOM      1  CA  ASP A   2      -2.391  -0.821  14.889  0.00  0.00    +0.160 C 
ENDROOT
BRANCH   1   3
ATOM      2  C   ALA A   1      -3.723  -2.205  16.374  0.00  0.00    +0.238 C 
ATOM      3  N   ASP A   2      -3.162  -1.021  16.134  0.00  0.00    -0.297 N 
ATOM      4  H   ASP A   2      -3.266  -0.244  16.817  0.00  0.00    +0.150 HD
ATOM      5  O   ALA A   1      -3.603  -3.158  15.611  0.00  0.00    -0.274 OA
BRANCH   2   6
ATOM      6  CA  ALA A   1      -4.483  -2.361  17.688  0.00  0.00    +0.145 C 
ATOM      7  CB  ALA A   1      -5.875  -1.802  17.544  0.00  0.00    +0.028 C 
BRANCH   6   8
ATOM      8  N   ALA A   1      -3.772  -1.646  18.737  0.00  0.00    -0.238 NA
ATOM      9  H   ALA A   1      -4.235  -0.861  19.238  0.00  0.00    +0.142 HD
ENDBRANCH   6   8
ENDBRANCH   2   6
ENDBRANCH   1   3
BRANCH   1  10
ATOM     10  C   ASP A   2      -1.210  -1.761  14.828  0.00  0.00    +0.241 C 
ATOM     11  N   LEU A   3      -0.505  -1.935  15.948  0.00  0.00    -0.298 N 
ATOM     12  H   LEU A   3      -0.766  -1.443  16.826  0.00  0.00    +0.150 HD
ATOM     13  O   ASP A   2      -0.872  -2.283  13.758  0.00  0.00    -0.273 OA
BRANCH  11  14
ATOM     14  CA  LEU A   3       0.637  -2.832  15.904  0.00  0.00    +0.137 C 
BRANCH  14  15
ATOM     15  C   LEU A   3       0.197  -4.241  15.580  0.00  0.00    +0.227 C 
ATOM     16  O   LEU A   3       0.827  -4.925  14.779  0.00  0.00    -0.286 OA
ENDBRANCH  14  15
BRANCH  14  17
ATOM     17  CB  LEU A   3       1.352  -2.859  17.266  0.00  0.00    +0.028 C 
BRANCH  17  18
ATOM     18  CG  LEU A   3       2.118  -1.613  17.650  0.00  0.00    +0.002 C 
ATOM     19  CD2 LEU A   3       2.560  -1.819  19.079  0.00  0.00    +0.000 C 
ATOM     20  CD1 LEU A   3       3.335  -1.505  16.707  0.00  0.00    +0.000 C 
ENDBRANCH  17  18
ENDBRANCH  14  17
ENDBRANCH  11  14
ENDBRANCH   1  10
BRANCH   1  21
ATOM     21  CB  ASP A   2      -1.844   0.607  14.776  0.00  0.00    +0.143 C 
BRANCH  21  22
ATOM     22  CG  ASP A   2      -2.928   1.630  14.555  0.00  0.00    +0.367 C 
ATOM     23  OD2 ASP A   2      -2.703   2.813  14.920  0.00  0.00    -0.246 OA
ATOM     24  OD1 ASP A   2      -4.034   1.269  14.025  0.00  0.00    -0.246 OA
ENDBRANCH  21  22
ENDBRANCH   1  21
TORSDOF 10
REMARK  Name = ../refined-set-2016/4b7p/4b7p_pocket.pdb
REMARK  215 active torsions:
REMARK  status: ('A' for Active; 'I' for Inactive)
REMARK    1  A    between atoms: _1  and  _3
REMARK    2  A    between atoms: _3  and  _4
REMARK    3  A    between atoms: _3  and  _6
REMARK    4  A    between atoms: _6  and  _7
REMARK    5  A    between atoms: _10  and  _12
REMARK    6  A    between atoms: _12  and  _13
REMARK    7  A    between atoms: _12  and  _15
REMARK    8  A    between atoms: _15  and  _16
REMARK    9  A    between atoms: _22  and  _24
REMARK   10  A    between atoms: _24  and  _25
REMARK   11  A    between atoms: _24  and  _27
REMARK   12  A    between atoms: _27  and  _28
REMARK   13  A    between atoms: _31  and  _33
REMARK   14  A    between atoms: _33  and  _34
REMARK   15  A    between atoms: _33  and  _36
REMARK   16  A    between atoms: _36  and  _37
REMARK   17  A    between atoms: _37  and  _38
REMARK   18  A    between atoms: _41  and  _43
REMARK   19  A    between atoms: _43  and  _44
REMARK   20  A    between atoms: _43  and  _46
REMARK   21  A    between atoms: _46  and  _47
REMARK   22  A    between atoms: _50  and  _52
REMARK   23  A    between atoms: _52  and  _53
REMARK   24  A    between atoms: _52  and  _55
REMARK   25  A    between atoms: _55  and  _56
REMARK   26  A    between atoms: _59  and  _61
REMARK   27  A    between atoms: _61  and  _62
REMARK   28  A    between atoms: _61  and  _64
REMARK   29  A    between atoms: _64  and  _65
REMARK   30  A    between atoms: _67  and  _69
REMARK   31  A    between atoms: _69  and  _70
REMARK   32  A    between atoms: _69  and  _72
REMARK   33  A    between atoms: _72  and  _73
REMARK   34  A    between atoms: _78  and  _80
REMARK   35  A    between atoms: _80  and  _81
REMARK   36  A    between atoms: _80  and  _83
REMARK   37  A    between atoms: _83  and  _84
REMARK   38  A    between atoms: _86  and  _88
REMARK   39  A    between atoms: _88  and  _89
REMARK   40  A    between atoms: _88  and  _91
REMARK   41  A    between atoms: _91  and  _92
REMARK   42  A    between atoms: _94  and  _96
REMARK   43  A    between atoms: _96  and  _97
REMARK   44  A    between atoms: _96  and  _99
REMARK   45  A    between atoms: _99  and  _100
REMARK   46  A    between atoms: _103  and  _105
REMARK   47  A    between atoms: _105  and  _106
REMARK   48  A    between atoms: _109  and  _111
REMARK   49  A    between atoms: _111  and  _112
REMARK   50  A    between atoms: _111  and  _114
REMARK   51  A    between atoms: _114  and  _115
REMARK   52  A    between atoms: _118  and  _120
REMARK   53  A    between atoms: _120  and  _121
REMARK   54  A    between atoms: _120  and  _123
REMARK   55  A    between atoms: _123  and  _124
REMARK   56  A    between atoms: _127  and  _129
REMARK   57  A    between atoms: _129  and  _130
REMARK   58  A    between atoms: _129  and  _132
REMARK   59  A    between atoms: _132  and  _133
REMARK   60  A    between atoms: _133  and  _134
REMARK   61  A    between atoms: _134  and  _135
REMARK   62  A    between atoms: _135  and  _136
REMARK   63  A    between atoms: _140  and  _142
REMARK   64  A    between atoms: _142  and  _143
REMARK   65  A    between atoms: _142  and  _145
REMARK   66  A    between atoms: _145  and  _146
REMARK   67  A    between atoms: _149  and  _151
REMARK   68  A    between atoms: _151  and  _152
REMARK   69  A    between atoms: _151  and  _154
REMARK   70  A    between atoms: _154  and  _155
REMARK   71  A    between atoms: _155  and  _156
REMARK   72  A    between atoms: _159  and  _161
REMARK   73  A    between atoms: _161  and  _162
REMARK   74  A    between atoms: _161  and  _164
REMARK   75  A    between atoms: _164  and  _165
REMARK   76  A    between atoms: _168  and  _170
REMARK   77  A    between atoms: _170  and  _171
REMARK   78  A    between atoms: _170  and  _173
REMARK   79  A    between atoms: _176  and  _178
REMARK   80  A    between atoms: _178  and  _179
REMARK   81  A    between atoms: _178  and  _181
REMARK   82  A    between atoms: _181  and  _182
REMARK   83  A    between atoms: _185  and  _187
REMARK   84  A    between atoms: _187  and  _188
REMARK   85  A    between atoms: _187  and  _190
REMARK   86  A    between atoms: _190  and  _191
REMARK   87  A    between atoms: _194  and  _196
REMARK   88  A    between atoms: _196  and  _197
REMARK   89  A    between atoms: _199  and  _201
REMARK   90  A    between atoms: _201  and  _202
REMARK   91  A    between atoms: _201  and  _204
REMARK   92  A    between atoms: _204  and  _205
REMARK   93  A    between atoms: _208  and  _210
REMARK   94  A    between atoms: _210  and  _211
REMARK   95  A    between atoms: _213  and  _215
REMARK   96  A    between atoms: _215  and  _216
REMARK   97  A    between atoms: _215  and  _218
REMARK   98  A    between atoms: _218  and  _219
REMARK   99  A    between atoms: _219  and  _220
REMARK  100  A    between atoms: _222  and  _224
REMARK  101  A    between atoms: _224  and  _225
REMARK  102  A    between atoms: _224  and  _227
REMARK  103  A    between atoms: _227  and  _228
REMARK  104  A    between atoms: _231  and  _233
REMARK  105  A    between atoms: _233  and  _234
REMARK  106  A    between atoms: _237  and  _239
REMARK  107  A    between atoms: _239  and  _240
REMARK  108  A    between atoms: _239  and  _242
REMARK  109  A    between atoms: _242  and  _243
REMARK  110  A    between atoms: _246  and  _248
REMARK  111  A    between atoms: _248  and  _249
REMARK  112  A    between atoms: _248  and  _251
REMARK  113  A    between atoms: _251  and  _252
REMARK  114  A    between atoms: _255  and  _257
REMARK  115  A    between atoms: _257  and  _258
REMARK  116  A    between atoms: _257  and  _260
REMARK  117  A    between atoms: _260  and  _261
REMARK  118  A    between atoms: _266  and  _268
REMARK  119  A    between atoms: _268  and  _269
REMARK  120  A    between atoms: _268  and  _271
REMARK  121  A    between atoms: _271  and  _272
REMARK  122  A    between atoms: _277  and  _279
REMARK  123  A    between atoms: _279  and  _280
REMARK  124  A    between atoms: _279  and  _282
REMARK  125  A    between atoms: _282  and  _283
REMARK  126  A    between atoms: _286  and  _288
REMARK  127  A    between atoms: _288  and  _289
REMARK  128  A    between atoms: _291  and  _293
REMARK  129  A    between atoms: _293  and  _294
REMARK  130  A    between atoms: _293  and  _296
REMARK  131  A    between atoms: _296  and  _297
REMARK  132  A    between atoms: _300  and  _302
REMARK  133  A    between atoms: _302  and  _303
REMARK  134  A    between atoms: _302  and  _305
REMARK  135  A    between atoms: _305  and  _306
REMARK  136  A    between atoms: _306  and  _307
REMARK  137  A    between atoms: _307  and  _308
REMARK  138  A    between atoms: _308  and  _309
REMARK  139  A    between atoms: _313  and  _315
REMARK  140  A    between atoms: _315  and  _316
REMARK  141  A    between atoms: _318  and  _320
REMARK  142  A    between atoms: _320  and  _321
REMARK  143  A    between atoms: _320  and  _323
REMARK  144  A    between atoms: _323  and  _324
REMARK  145  A    between atoms: _330  and  _332
REMARK  146  A    between atoms: _332  and  _333
REMARK  147  A    between atoms: _335  and  _337
REMARK  148  A    between atoms: _337  and  _338
REMARK  149  A    between atoms: _337  and  _340
REMARK  150  A    between atoms: _343  and  _345
REMARK  151  A    between atoms: _345  and  _346
REMARK  152  A    between atoms: _348  and  _350
REMARK  153  A    between atoms: _350  and  _351
REMARK  154  A    between atoms: _350  and  _353
REMARK  155  A    between atoms: _353  and  _354
REMARK  156  A    between atoms: _360  and  _362
REMARK  157  A    between atoms: _362  and  _363
REMARK  158  A    between atoms: _362  and  _365
REMARK  159  A    between atoms: _365  and  _366
REMARK  160  A    between atoms: _371  and  _372
REMARK  161  A    between atoms: _374  and  _376
REMARK  162  A    between atoms: _376  and  _377
REMARK  163  A    between atoms: _376  and  _379
REMARK  164  A    between atoms: _379  and  _380
REMARK  165  A    between atoms: _382  and  _384
REMARK  166  A    between atoms: _384  and  _385
REMARK  167  A    between atoms: _388  and  _390
REMARK  168  A    between atoms: _390  and  _391
REMARK  169  A    between atoms: _390  and  _393
REMARK  170  A    between atoms: _396  and  _398
REMARK  171  A    between atoms: _398  and  _399
REMARK  172  A    between atoms: _398  and  _401
REMARK  173  A    between atoms: _404  and  _406
REMARK  174  A    between atoms: _406  and  _407
REMARK  175  A    between atoms: _406  and  _409
REMARK  176  A    between atoms: _409  and  _410
REMARK  177  A    between atoms: _413  and  _415
REMARK  178  A    between atoms: _415  and  _416
REMARK  179  A    between atoms: _415  and  _418
REMARK  180  A    between atoms: _418  and  _419
REMARK  181  A    between atoms: _422  and  _424
REMARK  182  A    between atoms: _424  and  _425
REMARK  183  A    between atoms: _424  and  _427
REMARK  184  A    between atoms: _427  and  _428
REMARK  185  A    between atoms: _428  and  _429
REMARK  186  A    between atoms: _429  and  _430
REMARK  187  A    between atoms: _430  and  _431
REMARK  188  A    between atoms: _435  and  _437
REMARK  189  A    between atoms: _437  and  _438
REMARK  190  A    between atoms: _437  and  _440
REMARK  191  A    between atoms: _440  and  _441
REMARK  192  A    between atoms: _446  and  _448
REMARK  193  A    between atoms: _448  and  _449
REMARK  194  A    between atoms: _448  and  _451
REMARK  195  A    between atoms: _451  and  _452
REMARK  196  A    between atoms: _457  and  _459
REMARK  197  A    between atoms: _459  and  _460
REMARK  198  A    between atoms: _459  and  _462
REMARK  199  A    between atoms: _462  and  _463
REMARK  200  A    between atoms: _466  and  _468
REMARK  201  A    between atoms: _468  and  _469
REMARK  202  A    between atoms: _471  and  _473
REMARK  203  A    between atoms: _473  and  _474
REMARK  204  A    between atoms: _473  and  _476
REMARK  205  A    between atoms: _476  and  _477
REMARK  206  A    between atoms: _480  and  _482
REMARK  207  A    between atoms: _482  and  _483
REMARK  208  A    between atoms: _482  and  _485
REMARK  209  A    between atoms: _485  and  _486
REMARK  210  A    between atoms: _486  and  _487
REMARK  211  A    between atoms: _487  and  _488
REMARK  212  A    between atoms: _488  and  _489
REMARK  213  A    between atoms: _493  and  _495
REMARK  214  A    between atoms: _495  and  _496
REMARK  215  A    between atoms: _495  and  _498
REMARK                            x       y       z     vdW  Elec       q    Type
REMARK                         _______ _______ _______ _____ _____    ______ ____
ROOT
ATOM      1  CA  ASN A   2      -0.410  -3.681  10.766  0.00  0.00    +0.158 C 
ENDROOT
BRANCH   1   3
ATOM      2  C   ASN A   1      -2.042  -5.217  11.714  0.00  0.00    +0.239 C 
ATOM      3  N   ASN A   2      -1.256  -4.166  11.871  0.00  0.00    -0.297 N 
ATOM      4  H   ASN A   2      -1.234  -3.674  12.787  0.00  0.00    +0.150 HD
ATOM      5  O   ASN A   1      -1.964  -5.967  10.757  0.00  0.00    -0.274 OA
BRANCH   2   6
ATOM      6  CA  ASN A   1      -3.088  -5.463  12.794  0.00  0.00    +0.154 C 
BRANCH   6   7
ATOM      7  N   ASN A   1      -2.504  -5.355  14.132  0.00  0.00    -0.238 NA
ATOM      8  H   ASN A   1      -2.660  -4.490  14.687  0.00  0.00    +0.142 HD
ENDBRANCH   6   7
BRANCH   6   9
ATOM      9  CB  ASN A   1      -4.189  -4.433  12.631  0.00  0.00    +0.111 C 
BRANCH   9  10
ATOM     10  CG  ASN A   1      -5.415  -4.763  13.458  0.00  0.00    +0.221 C 
ATOM     11  OD1 ASN A   1      -5.643  -5.914  13.771  0.00  0.00    -0.275 OA
ATOM     12  ND2 ASN A   1      -6.233  -3.743  13.763  0.00  0.00    -0.329 N 
ATOM     13 HD21 ASN A   1      -7.111  -3.921  14.292  0.00  0.00    +0.145 HD
ATOM     14 HD22 ASN A   1      -5.989  -2.775  13.470  0.00  0.00    +0.145 HD
ENDBRANCH   9  10
ENDBRANCH   6   9
ENDBRANCH   2   6
ENDBRANCH   1   3
BRANCH   1  15
ATOM     15  C   ASN A   2       0.941  -4.311  10.721  0.00  0.00    +0.241 C 
ATOM     16  N   LEU A   3       1.335  -4.912  11.853  0.00  0.00    -0.297 N 
ATOM     17  H   LEU A   3       0.713  -4.888  12.686  0.00  0.00    +0.150 HD
ATOM     18  O   ASN A   2       1.602  -4.299   9.663  0.00  0.00    -0.273 OA
BRANCH  16  19
ATOM     19  CA  LEU A   3       2.607  -5.593  11.938  0.00  0.00    +0.149 C 
BRANCH  19  20
ATOM     20  C   LEU A   3       2.470  -7.073  12.187  0.00  0.00    +0.241 C 
ATOM     21  O   LEU A   3       3.218  -7.666  13.010  0.00  0.00    -0.273 OA
ATOM     22  N   GLY A   4       1.492  -7.708  11.498  0.00  0.00    -0.296 N 
ATOM     23  H   GLY A   4       0.664  -7.201  11.126  0.00  0.00    +0.150 HD
BRANCH  22  24
ATOM     24  CA  GLY A   4       1.665  -9.128  11.309  0.00  0.00    +0.163 C 
BRANCH  24  25
ATOM     25  C   GLY A   4       0.451  -9.996  11.262  0.00  0.00    +0.229 C 
ATOM     26  O   GLY A   4       0.517 -11.034  10.674  0.00  0.00    -0.286 OA
ENDBRANCH  24  25
ENDBRANCH  22  24
ENDBRANCH  19  20
BRANCH  19  27
ATOM     27  CB  LEU A   3       3.530  -4.883  12.929  0.00  0.00    +0.029 C 
BRANCH  27  28
ATOM     28  CG  LEU A   3       4.156  -3.585  12.403  0.00  0.00    +0.002 C 
ATOM     29  CD2 LEU A   3       5.021  -2.993  13.500  0.00  0.00    +0.000 C 
ATOM     30  CD1 LEU A   3       4.999  -3.818  11.135  0.00  0.00    +0.000 C 
ENDBRANCH  27  28
ENDBRANCH  19  27
ENDBRANCH  16  19
ENDBRANCH   1  15
BRANCH   1  31
ATOM     31  CB  ASN A   2      -0.272  -2.170  10.844  0.00  0.00    +0.114 C 
BRANCH  31  32
ATOM     32  CG  ASN A   2      -1.586  -1.431  10.680  0.00  0.00    +0.222 C 
ATOM     33  ND2 ASN A   2      -1.552  -0.114  10.895  0.00  0.00    -0.329 N 
ATOM     34 HD21 ASN A   2      -0.652   0.351  11.130  0.00  0.00    +0.145 HD
ATOM     35 HD22 ASN A   2      -2.425   0.447  10.828  0.00  0.00    +0.145 HD
ATOM     36  OD1 ASN A   2      -2.622  -2.021  10.401  0.00  0.00    -0.275 OA
ENDBRANCH  31  32
ENDBRANCH   1  31
TORSDOF 14
REMARK  Name = ../refined-set-2016/4b7p/4b7p_pocket.pdb
REMARK  215 active torsions:
REMARK  status: ('A' for Active; 'I' for Inactive)
REMARK    1  A    between atoms: _1  and  _3
REMARK    2  A    between atoms: _3  and  _4
REMARK    3  A    between atoms: _3  and  _6
REMARK    4  A    between atoms: _6  and  _7
REMARK    5  A    between atoms: _10  and  _12
REMARK    6  A    between atoms: _12  and  _13
REMARK    7  A    between atoms: _12  and  _15
REMARK    8  A    between atoms: _15  and  _16
REMARK    9  A    between atoms: _22  and  _24
REMARK   10  A    between atoms: _24  and  _25
REMARK   11  A    between atoms: _24  and  _27
REMARK   12  A    between atoms: _27  and  _28
REMARK   13  A    between atoms: _31  and  _33
REMARK   14  A    between atoms: _33  and  _34
REMARK   15  A    between atoms: _33  and  _36
REMARK   16  A    between atoms: _36  and  _37
REMARK   17  A    between atoms: _37  and  _38
REMARK   18  A    between atoms: _41  and  _43
REMARK   19  A    between atoms: _43  and  _44
REMARK   20  A    between atoms: _43  and  _46
REMARK   21  A    between atoms: _46  and  _47
REMARK   22  A    between atoms: _50  and  _52
REMARK   23  A    between atoms: _52  and  _53
REMARK   24  A    between atoms: _52  and  _55
REMARK   25  A    between atoms: _55  and  _56
REMARK   26  A    between atoms: _59  and  _61
REMARK   27  A    between atoms: _61  and  _62
REMARK   28  A    between atoms: _61  and  _64
REMARK   29  A    between atoms: _64  and  _65
REMARK   30  A    between atoms: _67  and  _69
REMARK   31  A    between atoms: _69  and  _70
REMARK   32  A    between atoms: _69  and  _72
REMARK   33  A    between atoms: _72  and  _73
REMARK   34  A    between atoms: _78  and  _80
REMARK   35  A    between atoms: _80  and  _81
REMARK   36  A    between atoms: _80  and  _83
REMARK   37  A    between atoms: _83  and  _84
REMARK   38  A    between atoms: _86  and  _88
REMARK   39  A    between atoms: _88  and  _89
REMARK   40  A    between atoms: _88  and  _91
REMARK   41  A    between atoms: _91  and  _92
REMARK   42  A    between atoms: _94  and  _96
REMARK   43  A    between atoms: _96  and  _97
REMARK   44  A    between atoms: _96  and  _99
REMARK   45  A    between atoms: _99  and  _100
REMARK   46  A    between atoms: _103  and  _105
REMARK   47  A    between atoms: _105  and  _106
REMARK   48  A    between atoms: _109  and  _111
REMARK   49  A    between atoms: _111  and  _112
REMARK   50  A    between atoms: _111  and  _114
REMARK   51  A    between atoms: _114  and  _115
REMARK   52  A    between atoms: _118  and  _120
REMARK   53  A    between atoms: _120  and  _121
REMARK   54  A    between atoms: _120  and  _123
REMARK   55  A    between atoms: _123  and  _124
REMARK   56  A    between atoms: _127  and  _129
REMARK   57  A    between atoms: _129  and  _130
REMARK   58  A    between atoms: _129  and  _132
REMARK   59  A    between atoms: _132  and  _133
REMARK   60  A    between atoms: _133  and  _134
REMARK   61  A    between atoms: _134  and  _135
REMARK   62  A    between atoms: _135  and  _136
REMARK   63  A    between atoms: _140  and  _142
REMARK   64  A    between atoms: _142  and  _143
REMARK   65  A    between atoms: _142  and  _145
REMARK   66  A    between atoms: _145  and  _146
REMARK   67  A    between atoms: _149  and  _151
REMARK   68  A    between atoms: _151  and  _152
REMARK   69  A    between atoms: _151  and  _154
REMARK   70  A    between atoms: _154  and  _155
REMARK   71  A    between atoms: _155  and  _156
REMARK   72  A    between atoms: _159  and  _161
REMARK   73  A    between atoms: _161  and  _162
REMARK   74  A    between atoms: _161  and  _164
REMARK   75  A    between atoms: _164  and  _165
REMARK   76  A    between atoms: _168  and  _170
REMARK   77  A    between atoms: _170  and  _171
REMARK   78  A    between atoms: _170  and  _173
REMARK   79  A    between atoms: _176  and  _178
REMARK   80  A    between atoms: _178  and  _179
REMARK   81  A    between atoms: _178  and  _181
REMARK   82  A    between atoms: _181  and  _182
REMARK   83  A    between atoms: _185  and  _187
REMARK   84  A    between atoms: _187  and  _188
REMARK   85  A    between atoms: _187  and  _190
REMARK   86  A    between atoms: _190  and  _191
REMARK   87  A    between atoms: _194  and  _196
REMARK   88  A    between atoms: _196  and  _197
REMARK   89  A    between atoms: _199  and  _201
REMARK   90  A    between atoms: _201  and  _202
REMARK   91  A    between atoms: _201  and  _204
REMARK   92  A    between atoms: _204  and  _205
REMARK   93  A    between atoms: _208  and  _210
REMARK   94  A    between atoms: _210  and  _211
REMARK   95  A    between atoms: _213  and  _215
REMARK   96  A    between atoms: _215  and  _216
REMARK   97  A    between atoms: _215  and  _218
REMARK   98  A    between atoms: _218  and  _219
REMARK   99  A    between atoms: _219  and  _220
REMARK  100  A    between atoms: _222  and  _224
REMARK  101  A    between atoms: _224  and  _225
REMARK  102  A    between atoms: _224  and  _227
REMARK  103  A    between atoms: _227  and  _228
REMARK  104  A    between atoms: _231  and  _233
REMARK  105  A    between atoms: _233  and  _234
REMARK  106  A    between atoms: _237  and  _239
REMARK  107  A    between atoms: _239  and  _240
REMARK  108  A    between atoms: _239  and  _242
REMARK  109  A    between atoms: _242  and  _243
REMARK  110  A    between atoms: _246  and  _248
REMARK  111  A    between atoms: _248  and  _249
REMARK  112  A    between atoms: _248  and  _251
REMARK  113  A    between atoms: _251  and  _252
REMARK  114  A    between atoms: _255  and  _257
REMARK  115  A    between atoms: _257  and  _258
REMARK  116  A    between atoms: _257  and  _260
REMARK  117  A    between atoms: _260  and  _261
REMARK  118  A    between atoms: _266  and  _268
REMARK  119  A    between atoms: _268  and  _269
REMARK  120  A    between atoms: _268  and  _271
REMARK  121  A    between atoms: _271  and  _272
REMARK  122  A    between atoms: _277  and  _279
REMARK  123  A    between atoms: _279  and  _280
REMARK  124  A    between atoms: _279  and  _282
REMARK  125  A    between atoms: _282  and  _283
REMARK  126  A    between atoms: _286  and  _288
REMARK  127  A    between atoms: _288  and  _289
REMARK  128  A    between atoms: _291  and  _293
REMARK  129  A    between atoms: _293  and  _294
REMARK  130  A    between atoms: _293  and  _296
REMARK  131  A    between atoms: _296  and  _297
REMARK  132  A    between atoms: _300  and  _302
REMARK  133  A    between atoms: _302  and  _303
REMARK  134  A    between atoms: _302  and  _305
REMARK  135  A    between atoms: _305  and  _306
REMARK  136  A    between atoms: _306  and  _307
REMARK  137  A    between atoms: _307  and  _308
REMARK  138  A    between atoms: _308  and  _309
REMARK  139  A    between atoms: _313  and  _315
REMARK  140  A    between atoms: _315  and  _316
REMARK  141  A    between atoms: _318  and  _320
REMARK  142  A    between atoms: _320  and  _321
REMARK  143  A    between atoms: _320  and  _323
REMARK  144  A    between atoms: _323  and  _324
REMARK  145  A    between atoms: _330  and  _332
REMARK  146  A    between atoms: _332  and  _333
REMARK  147  A    between atoms: _335  and  _337
REMARK  148  A    between atoms: _337  and  _338
REMARK  149  A    between atoms: _337  and  _340
REMARK  150  A    between atoms: _343  and  _345
REMARK  151  A    between atoms: _345  and  _346
REMARK  152  A    between atoms: _348  and  _350
REMARK  153  A    between atoms: _350  and  _351
REMARK  154  A    between atoms: _350  and  _353
REMARK  155  A    between atoms: _353  and  _354
REMARK  156  A    between atoms: _360  and  _362
REMARK  157  A    between atoms: _362  and  _363
REMARK  158  A    between atoms: _362  and  _365
REMARK  159  A    between atoms: _365  and  _366
REMARK  160  A    between atoms: _371  and  _372
REMARK  161  A    between atoms: _374  and  _376
REMARK  162  A    between atoms: _376  and  _377
REMARK  163  A    between atoms: _376  and  _379
REMARK  164  A    between atoms: _379  and  _380
REMARK  165  A    between atoms: _382  and  _384
REMARK  166  A    between atoms: _384  and  _385
REMARK  167  A    between atoms: _388  and  _390
REMARK  168  A    between atoms: _390  and  _391
REMARK  169  A    between atoms: _390  and  _393
REMARK  170  A    between atoms: _396  and  _398
REMARK  171  A    between atoms: _398  and  _399
REMARK  172  A    between atoms: _398  and  _401
REMARK  173  A    between atoms: _404  and  _406
REMARK  174  A    between atoms: _406  and  _407
REMARK  175  A    between atoms: _406  and  _409
REMARK  176  A    between atoms: _409  and  _410
REMARK  177  A    between atoms: _413  and  _415
REMARK  178  A    between atoms: _415  and  _416
REMARK  179  A    between atoms: _415  and  _418
REMARK  180  A    between atoms: _418  and  _419
REMARK  181  A    between atoms: _422  and  _424
REMARK  182  A    between atoms: _424  and  _425
REMARK  183  A    between atoms: _424  and  _427
REMARK  184  A    between atoms: _427  and  _428
REMARK  185  A    between atoms: _428  and  _429
REMARK  186  A    between atoms: _429  and  _430
REMARK  187  A    between atoms: _430  and  _431
REMARK  188  A    between atoms: _435  and  _437
REMARK  189  A    between atoms: _437  and  _438
REMARK  190  A    between atoms: _437  and  _440
REMARK  191  A    between atoms: _440  and  _441
REMARK  192  A    between atoms: _446  and  _448
REMARK  193  A    between atoms: _448  and  _449
REMARK  194  A    between atoms: _448  and  _451
REMARK  195  A    between atoms: _451  and  _452
REMARK  196  A    between atoms: _457  and  _459
REMARK  197  A    between atoms: _459  and  _460
REMARK  198  A    between atoms: _459  and  _462
REMARK  199  A    between atoms: _462  and  _463
REMARK  200  A    between atoms: _466  and  _468
REMARK  201  A    between atoms: _468  and  _469
REMARK  202  A    between atoms: _471  and  _473
REMARK  203  A    between atoms: _473  and  _474
REMARK  204  A    between atoms: _473  and  _476
REMARK  205  A    between atoms: _476  and  _477
REMARK  206  A    between atoms: _480  and  _482
REMARK  207  A    between atoms: _482  and  _483
REMARK  208  A    between atoms: _482  and  _485
REMARK  209  A    between atoms: _485  and  _486
REMARK  210  A    between atoms: _486  and  _487
REMARK  211  A    between atoms: _487  and  _488
REMARK  212  A    between atoms: _488  and  _489
REMARK  213  A    between atoms: _493  and  _495
REMARK  214  A    between atoms: _495  and  _496
REMARK  215  A    between atoms: _495  and  _498
REMARK                            x       y       z     vdW  Elec       q    Type
REMARK                         _______ _______ _______ _____ _____    ______ ____
ROOT
ATOM      1  CA  ILE A   1      -3.629  -9.092   8.851  0.00  0.00    +0.133 C 
ENDROOT
BRANCH   1   2
ATOM      2  N   ILE A   1      -2.712  -9.316  10.015  0.00  0.00    -0.239 NA
ATOM      3  H   ILE A   1      -2.085  -8.541  10.311  0.00  0.00    +0.142 HD
ENDBRANCH   1   2
BRANCH   1   4
ATOM      4  CB  ILE A   1      -4.215  -7.652   8.826  0.00  0.00    +0.023 C 
ATOM      5  CG2 ILE A   1      -5.046  -7.454   7.576  0.00  0.00    +0.002 C 
BRANCH   4   6
ATOM      6  CG1 ILE A   1      -5.079  -7.351  10.070  0.00  0.00    +0.002 C 
ATOM      7  CD1 ILE A   1      -6.306  -8.238  10.214  0.00  0.00    +0.000 C 
ENDBRANCH   4   6
ENDBRANCH   1   4
BRANCH   1   8
ATOM      8  C   ILE A   1      -2.864  -9.380   7.572  0.00  0.00    +0.224 C 
ATOM      9  O   ILE A   1      -1.749  -8.901   7.376  0.00  0.00    -0.287 OA
ENDBRANCH   1   8
TORSDOF 4
REMARK  Name = ../refined-set-2016/4b7p/4b7p_pocket.pdb
REMARK  215 active torsions:
REMARK  status: ('A' for Active; 'I' for Inactive)
REMARK    1  A    between atoms: _1  and  _3
REMARK    2  A    between atoms: _3  and  _4
REMARK    3  A    between atoms: _3  and  _6
REMARK    4  A    between atoms: _6  and  _7
REMARK    5  A    between atoms: _10  and  _12
REMARK    6  A    between atoms: _12  and  _13
REMARK    7  A    between atoms: _12  and  _15
REMARK    8  A    between atoms: _15  and  _16
REMARK    9  A    between atoms: _22  and  _24
REMARK   10  A    between atoms: _24  and  _25
REMARK   11  A    between atoms: _24  and  _27
REMARK   12  A    between atoms: _27  and  _28
REMARK   13  A    between atoms: _31  and  _33
REMARK   14  A    between atoms: _33  and  _34
REMARK   15  A    between atoms: _33  and  _36
REMARK   16  A    between atoms: _36  and  _37
REMARK   17  A    between atoms: _37  and  _38
REMARK   18  A    between atoms: _41  and  _43
REMARK   19  A    between atoms: _43  and  _44
REMARK   20  A    between atoms: _43  and  _46
REMARK   21  A    between atoms: _46  and  _47
REMARK   22  A    between atoms: _50  and  _52
REMARK   23  A    between atoms: _52  and  _53
REMARK   24  A    between atoms: _52  and  _55
REMARK   25  A    between atoms: _55  and  _56
REMARK   26  A    between atoms: _59  and  _61
REMARK   27  A    between atoms: _61  and  _62
REMARK   28  A    between atoms: _61  and  _64
REMARK   29  A    between atoms: _64  and  _65
REMARK   30  A    between atoms: _67  and  _69
REMARK   31  A    between atoms: _69  and  _70
REMARK   32  A    between atoms: _69  and  _72
REMARK   33  A    between atoms: _72  and  _73
REMARK   34  A    between atoms: _78  and  _80
REMARK   35  A    between atoms: _80  and  _81
REMARK   36  A    between atoms: _80  and  _83
REMARK   37  A    between atoms: _83  and  _84
REMARK   38  A    between atoms: _86  and  _88
REMARK   39  A    between atoms: _88  and  _89
REMARK   40  A    between atoms: _88  and  _91
REMARK   41  A    between atoms: _91  and  _92
REMARK   42  A    between atoms: _94  and  _96
REMARK   43  A    between atoms: _96  and  _97
REMARK   44  A    between atoms: _96  and  _99
REMARK   45  A    between atoms: _99  and  _100
REMARK   46  A    between atoms: _103  and  _105
REMARK   47  A    between atoms: _105  and  _106
REMARK   48  A    between atoms: _109  and  _111
REMARK   49  A    between atoms: _111  and  _112
REMARK   50  A    between atoms: _111  and  _114
REMARK   51  A    between atoms: _114  and  _115
REMARK   52  A    between atoms: _118  and  _120
REMARK   53  A    between atoms: _120  and  _121
REMARK   54  A    between atoms: _120  and  _123
REMARK   55  A    between atoms: _123  and  _124
REMARK   56  A    between atoms: _127  and  _129
REMARK   57  A    between atoms: _129  and  _130
REMARK   58  A    between atoms: _129  and  _132
REMARK   59  A    between atoms: _132  and  _133
REMARK   60  A    between atoms: _133  and  _134
REMARK   61  A    between atoms: _134  and  _135
REMARK   62  A    between atoms: _135  and  _136
REMARK   63  A    between atoms: _140  and  _142
REMARK   64  A    between atoms: _142  and  _143
REMARK   65  A    between atoms: _142  and  _145
REMARK   66  A    between atoms: _145  and  _146
REMARK   67  A    between atoms: _149  and  _151
REMARK   68  A    between atoms: _151  and  _152
REMARK   69  A    between atoms: _151  and  _154
REMARK   70  A    between atoms: _154  and  _155
REMARK   71  A    between atoms: _155  and  _156
REMARK   72  A    between atoms: _159  and  _161
REMARK   73  A    between atoms: _161  and  _162
REMARK   74  A    between atoms: _161  and  _164
REMARK   75  A    between atoms: _164  and  _165
REMARK   76  A    between atoms: _168  and  _170
REMARK   77  A    between atoms: _170  and  _171
REMARK   78  A    between atoms: _170  and  _173
REMARK   79  A    between atoms: _176  and  _178
REMARK   80  A    between atoms: _178  and  _179
REMARK   81  A    between atoms: _178  and  _181
REMARK   82  A    between atoms: _181  and  _182
REMARK   83  A    between atoms: _185  and  _187
REMARK   84  A    between atoms: _187  and  _188
REMARK   85  A    between atoms: _187  and  _190
REMARK   86  A    between atoms: _190  and  _191
REMARK   87  A    between atoms: _194  and  _196
REMARK   88  A    between atoms: _196  and  _197
REMARK   89  A    between atoms: _199  and  _201
REMARK   90  A    between atoms: _201  and  _202
REMARK   91  A    between atoms: _201  and  _204
REMARK   92  A    between atoms: _204  and  _205
REMARK   93  A    between atoms: _208  and  _210
REMARK   94  A    between atoms: _210  and  _211
REMARK   95  A    between atoms: _213  and  _215
REMARK   96  A    between atoms: _215  and  _216
REMARK   97  A    between atoms: _215  and  _218
REMARK   98  A    between atoms: _218  and  _219
REMARK   99  A    between atoms: _219  and  _220
REMARK  100  A    between atoms: _222  and  _224
REMARK  101  A    between atoms: _224  and  _225
REMARK  102  A    between atoms: _224  and  _227
REMARK  103  A    between atoms: _227  and  _228
REMARK  104  A    between atoms: _231  and  _233
REMARK  105  A    between atoms: _233  and  _234
REMARK  106  A    between atoms: _237  and  _239
REMARK  107  A    between atoms: _239  and  _240
REMARK  108  A    between atoms: _239  and  _242
REMARK  109  A    between atoms: _242  and  _243
REMARK  110  A    between atoms: _246  and  _248
REMARK  111  A    between atoms: _248  and  _249
REMARK  112  A    between atoms: _248  and  _251
REMARK  113  A    between atoms: _251  and  _252
REMARK  114  A    between atoms: _255  and  _257
REMARK  115  A    between atoms: _257  and  _258
REMARK  116  A    between atoms: _257  and  _260
REMARK  117  A    between atoms: _260  and  _261
REMARK  118  A    between atoms: _266  and  _268
REMARK  119  A    between atoms: _268  and  _269
REMARK  120  A    between atoms: _268  and  _271
REMARK  121  A    between atoms: _271  and  _272
REMARK  122  A    between atoms: _277  and  _279
REMARK  123  A    between atoms: _279  and  _280
REMARK  124  A    between atoms: _279  and  _282
REMARK  125  A    between atoms: _282  and  _283
REMARK  126  A    between atoms: _286  and  _288
REMARK  127  A    between atoms: _288  and  _289
REMARK  128  A    between atoms: _291  and  _293
REMARK  129  A    between atoms: _293  and  _294
REMARK  130  A    between atoms: _293  and  _296
REMARK  131  A    between atoms: _296  and  _297
REMARK  132  A    between atoms: _300  and  _302
REMARK  133  A    between atoms: _302  and  _303
REMARK  134  A    between atoms: _302  and  _305
REMARK  135  A    between atoms: _305  and  _306
REMARK  136  A    between atoms: _306  and  _307
REMARK  137  A    between atoms: _307  and  _308
REMARK  138  A    between atoms: _308  and  _309
REMARK  139  A    between atoms: _313  and  _315
REMARK  140  A    between atoms: _315  and  _316
REMARK  141  A    between atoms: _318  and  _320
REMARK  142  A    between atoms: _320  and  _321
REMARK  143  A    between atoms: _320  and  _323
REMARK  144  A    between atoms: _323  and  _324
REMARK  145  A    between atoms: _330  and  _332
REMARK  146  A    between atoms: _332  and  _333
REMARK  147  A    between atoms: _335  and  _337
REMARK  148  A    between atoms: _337  and  _338
REMARK  149  A    between atoms: _337  and  _340
REMARK  150  A    between atoms: _343  and  _345
REMARK  151  A    between atoms: _345  and  _346
REMARK  152  A    between atoms: _348  and  _350
REMARK  153  A    between atoms: _350  and  _351
REMARK  154  A    between atoms: _350  and  _353
REMARK  155  A    between atoms: _353  and  _354
REMARK  156  A    between atoms: _360  and  _362
REMARK  157  A    between atoms: _362  and  _363
REMARK  158  A    between atoms: _362  and  _365
REMARK  159  A    between atoms: _365  and  _366
REMARK  160  A    between atoms: _371  and  _372
REMARK  161  A    between atoms: _374  and  _376
REMARK  162  A    between atoms: _376  and  _377
REMARK  163  A    between atoms: _376  and  _379
REMARK  164  A    between atoms: _379  and  _380
REMARK  165  A    between atoms: _382  and  _384
REMARK  166  A    between atoms: _384  and  _385
REMARK  167  A    between atoms: _388  and  _390
REMARK  168  A    between atoms: _390  and  _391
REMARK  169  A    between atoms: _390  and  _393
REMARK  170  A    between atoms: _396  and  _398
REMARK  171  A    between atoms: _398  and  _399
REMARK  172  A    between atoms: _398  and  _401
REMARK  173  A    between atoms: _404  and  _406
REMARK  174  A    between atoms: _406  and  _407
REMARK  175  A    between atoms: _406  and  _409
REMARK  176  A    between atoms: _409  and  _410
REMARK  177  A    between atoms: _413  and  _415
REMARK  178  A    between atoms: _415  and  _416
REMARK  179  A    between atoms: _415  and  _418
REMARK  180  A    between atoms: _418  and  _419
REMARK  181  A    between atoms: _422  and  _424
REMARK  182  A    between atoms: _424  and  _425
REMARK  183  A    between atoms: _424  and  _427
REMARK  184  A    between atoms: _427  and  _428
REMARK  185  A    between atoms: _428  and  _429
REMARK  186  A    between atoms: _429  and  _430
REMARK  187  A    between atoms: _430  and  _431
REMARK  188  A    between atoms: _435  and  _437
REMARK  189  A    between atoms: _437  and  _438
REMARK  190  A    between atoms: _437  and  _440
REMARK  191  A    between atoms: _440  and  _441
REMARK  192  A    between atoms: _446  and  _448
REMARK  193  A    between atoms: _448  and  _449
REMARK  194  A    between atoms: _448  and  _451
REMARK  195  A    between atoms: _451  and  _452
REMARK  196  A    between atoms: _457  and  _459
REMARK  197  A    between atoms: _459  and  _460
REMARK  198  A    between atoms: _459  and  _462
REMARK  199  A    between atoms: _462  and  _463
REMARK  200  A    between atoms: _466  and  _468
REMARK  201  A    between atoms: _468  and  _469
REMARK  202  A    between atoms: _471  and  _473
REMARK  203  A    between atoms: _473  and  _474
REMARK  204  A    between atoms: _473  and  _476
REMARK  205  A    between atoms: _476  and  _477
REMARK  206  A    between atoms: _480  and  _482
REMARK  207  A    between atoms: _482  and  _483
REMARK  208  A    between atoms: _482  and  _485
REMARK  209  A    between atoms: _485  and  _486
REMARK  210  A    between atoms: _486  and  _487
REMARK  211  A    between atoms: _487  and  _488
REMARK  212  A    between atoms: _488  and  _489
REMARK  213  A    between atoms: _493  and  _495
REMARK  214  A    between atoms: _495  and  _496
REMARK  215  A    between atoms: _495  and  _498
REMARK                            x       y       z     vdW  Elec       q    Type
REMARK                         _______ _______ _______ _____ _____    ______ ____
ROOT
ATOM      1  CG  LYS A   1       0.192  -6.961   4.731  0.00  0.00    -0.000 C 
ENDROOT
BRANCH   1   2
ATOM      2  CB  LYS A   1       0.255  -7.542   3.288  0.00  0.00    +0.025 C 
BRANCH   2   3
ATOM      3  CA  LYS A   1      -1.139  -8.037   2.975  0.00  0.00    +0.133 C 
BRANCH   3   4
ATOM      4  N   LYS A   1      -1.465  -9.145   3.875  0.00  0.00    -0.239 NA
ATOM      5  H   LYS A   1      -0.812  -9.953   3.930  0.00  0.00    +0.142 HD
ENDBRANCH   3   4
BRANCH   3   6
ATOM      6  C   LYS A   1      -1.258  -8.536   1.557  0.00  0.00    +0.224 C 
ATOM      7  O   LYS A   1      -0.792  -9.628   1.247  0.00  0.00    -0.287 OA
ENDBRANCH   3   6
ENDBRANCH   2   3
ENDBRANCH   1   2
BRANCH   1   8
ATOM      8  CD  LYS A   1       1.387  -6.202   5.175  0.00  0.00    -0.024 C 
BRANCH   8   9
ATOM      9  CE  LYS A   1       1.615  -5.032   4.262  0.00  0.00    -0.086 C 
BRANCH   9  10
ATOM     10  NZ  LYS A   1       1.043  -3.738   4.711  0.00  0.00    +0.380 N 
ATOM     11  HZ1 LYS A   1       1.459  -3.476   5.628  0.00  0.00    -0.089 HD
ATOM     12  HZ2 LYS A   1       0.012  -3.832   4.810  0.00  0.00    -0.089 HD
ATOM     13  HZ3 LYS A   1       1.259  -3.002   4.008  0.00  0.00    -0.089 HD
ENDBRANCH   9  10
ENDBRANCH   8   9
ENDBRANCH   1   8
TORSDOF 7
REMARK  Name = ../refined-set-2016/4b7p/4b7p_pocket.pdb
REMARK  215 active torsions:
REMARK  status: ('A' for Active; 'I' for Inactive)
REMARK    1  A    between atoms: _1  and  _3
REMARK    2  A    between atoms: _3  and  _4
REMARK    3  A    between atoms: _3  and  _6
REMARK    4  A    between atoms: _6  and  _7
REMARK    5  A    between atoms: _10  and  _12
REMARK    6  A    between atoms: _12  and  _13
REMARK    7  A    between atoms: _12  and  _15
REMARK    8  A    between atoms: _15  and  _16
REMARK    9  A    between atoms: _22  and  _24
REMARK   10  A    between atoms: _24  and  _25
REMARK   11  A    between atoms: _24  and  _27
REMARK   12  A    between atoms: _27  and  _28
REMARK   13  A    between atoms: _31  and  _33
REMARK   14  A    between atoms: _33  and  _34
REMARK   15  A    between atoms: _33  and  _36
REMARK   16  A    between atoms: _36  and  _37
REMARK   17  A    between atoms: _37  and  _38
REMARK   18  A    between atoms: _41  and  _43
REMARK   19  A    between atoms: _43  and  _44
REMARK   20  A    between atoms: _43  and  _46
REMARK   21  A    between atoms: _46  and  _47
REMARK   22  A    between atoms: _50  and  _52
REMARK   23  A    between atoms: _52  and  _53
REMARK   24  A    between atoms: _52  and  _55
REMARK   25  A    between atoms: _55  and  _56
REMARK   26  A    between atoms: _59  and  _61
REMARK   27  A    between atoms: _61  and  _62
REMARK   28  A    between atoms: _61  and  _64
REMARK   29  A    between atoms: _64  and  _65
REMARK   30  A    between atoms: _67  and  _69
REMARK   31  A    between atoms: _69  and  _70
REMARK   32  A    between atoms: _69  and  _72
REMARK   33  A    between atoms: _72  and  _73
REMARK   34  A    between atoms: _78  and  _80
REMARK   35  A    between atoms: _80  and  _81
REMARK   36  A    between atoms: _80  and  _83
REMARK   37  A    between atoms: _83  and  _84
REMARK   38  A    between atoms: _86  and  _88
REMARK   39  A    between atoms: _88  and  _89
REMARK   40  A    between atoms: _88  and  _91
REMARK   41  A    between atoms: _91  and  _92
REMARK   42  A    between atoms: _94  and  _96
REMARK   43  A    between atoms: _96  and  _97
REMARK   44  A    between atoms: _96  and  _99
REMARK   45  A    between atoms: _99  and  _100
REMARK   46  A    between atoms: _103  and  _105
REMARK   47  A    between atoms: _105  and  _106
REMARK   48  A    between atoms: _109  and  _111
REMARK   49  A    between atoms: _111  and  _112
REMARK   50  A    between atoms: _111  and  _114
REMARK   51  A    between atoms: _114  and  _115
REMARK   52  A    between atoms: _118  and  _120
REMARK   53  A    between atoms: _120  and  _121
REMARK   54  A    between atoms: _120  and  _123
REMARK   55  A    between atoms: _123  and  _124
REMARK   56  A    between atoms: _127  and  _129
REMARK   57  A    between atoms: _129  and  _130
REMARK   58  A    between atoms: _129  and  _132
REMARK   59  A    between atoms: _132  and  _133
REMARK   60  A    between atoms: _133  and  _134
REMARK   61  A    between atoms: _134  and  _135
REMARK   62  A    between atoms: _135  and  _136
REMARK   63  A    between atoms: _140  and  _142
REMARK   64  A    between atoms: _142  and  _143
REMARK   65  A    between atoms: _142  and  _145
REMARK   66  A    between atoms: _145  and  _146
REMARK   67  A    between atoms: _149  and  _151
REMARK   68  A    between atoms: _151  and  _152
REMARK   69  A    between atoms: _151  and  _154
REMARK   70  A    between atoms: _154  and  _155
REMARK   71  A    between atoms: _155  and  _156
REMARK   72  A    between atoms: _159  and  _161
REMARK   73  A    between atoms: _161  and  _162
REMARK   74  A    between atoms: _161  and  _164
REMARK   75  A    between atoms: _164  and  _165
REMARK   76  A    between atoms: _168  and  _170
REMARK   77  A    between atoms: _170  and  _171
REMARK   78  A    between atoms: _170  and  _173
REMARK   79  A    between atoms: _176  and  _178
REMARK   80  A    between atoms: _178  and  _179
REMARK   81  A    between atoms: _178  and  _181
REMARK   82  A    between atoms: _181  and  _182
REMARK   83  A    between atoms: _185  and  _187
REMARK   84  A    between atoms: _187  and  _188
REMARK   85  A    between atoms: _187  and  _190
REMARK   86  A    between atoms: _190  and  _191
REMARK   87  A    between atoms: _194  and  _196
REMARK   88  A    between atoms: _196  and  _197
REMARK   89  A    between atoms: _199  and  _201
REMARK   90  A    between atoms: _201  and  _202
REMARK   91  A    between atoms: _201  and  _204
REMARK   92  A    between atoms: _204  and  _205
REMARK   93  A    between atoms: _208  and  _210
REMARK   94  A    between atoms: _210  and  _211
REMARK   95  A    between atoms: _213  and  _215
REMARK   96  A    between atoms: _215  and  _216
REMARK   97  A    between atoms: _215  and  _218
REMARK   98  A    between atoms: _218  and  _219
REMARK   99  A    between atoms: _219  and  _220
REMARK  100  A    between atoms: _222  and  _224
REMARK  101  A    between atoms: _224  and  _225
REMARK  102  A    between atoms: _224  and  _227
REMARK  103  A    between atoms: _227  and  _228
REMARK  104  A    between atoms: _231  and  _233
REMARK  105  A    between atoms: _233  and  _234
REMARK  106  A    between atoms: _237  and  _239
REMARK  107  A    between atoms: _239  and  _240
REMARK  108  A    between atoms: _239  and  _242
REMARK  109  A    between atoms: _242  and  _243
REMARK  110  A    between atoms: _246  and  _248
REMARK  111  A    between atoms: _248  and  _249
REMARK  112  A    between atoms: _248  and  _251
REMARK  113  A    between atoms: _251  and  _252
REMARK  114  A    between atoms: _255  and  _257
REMARK  115  A    between atoms: _257  and  _258
REMARK  116  A    between atoms: _257  and  _260
REMARK  117  A    between atoms: _260  and  _261
REMARK  118  A    between atoms: _266  and  _268
REMARK  119  A    between atoms: _268  and  _269
REMARK  120  A    between atoms: _268  and  _271
REMARK  121  A    between atoms: _271  and  _272
REMARK  122  A    between atoms: _277  and  _279
REMARK  123  A    between atoms: _279  and  _280
REMARK  124  A    between atoms: _279  and  _282
REMARK  125  A    between atoms: _282  and  _283
REMARK  126  A    between atoms: _286  and  _288
REMARK  127  A    between atoms: _288  and  _289
REMARK  128  A    between atoms: _291  and  _293
REMARK  129  A    between atoms: _293  and  _294
REMARK  130  A    between atoms: _293  and  _296
REMARK  131  A    between atoms: _296  and  _297
REMARK  132  A    between atoms: _300  and  _302
REMARK  133  A    between atoms: _302  and  _303
REMARK  134  A    between atoms: _302  and  _305
REMARK  135  A    between atoms: _305  and  _306
REMARK  136  A    between atoms: _306  and  _307
REMARK  137  A    between atoms: _307  and  _308
REMARK  138  A    between atoms: _308  and  _309
REMARK  139  A    between atoms: _313  and  _315
REMARK  140  A    between atoms: _315  and  _316
REMARK  141  A    between atoms: _318  and  _320
REMARK  142  A    between atoms: _320  and  _321
REMARK  143  A    between atoms: _320  and  _323
REMARK  144  A    between atoms: _323  and  _324
REMARK  145  A    between atoms: _330  and  _332
REMARK  146  A    between atoms: _332  and  _333
REMARK  147  A    between atoms: _335  and  _337
REMARK  148  A    between atoms: _337  and  _338
REMARK  149  A    between atoms: _337  and  _340
REMARK  150  A    between atoms: _343  and  _345
REMARK  151  A    between atoms: _345  and  _346
REMARK  152  A    between atoms: _348  and  _350
REMARK  153  A    between atoms: _350  and  _351
REMARK  154  A    between atoms: _350  and  _353
REMARK  155  A    between atoms: _353  and  _354
REMARK  156  A    between atoms: _360  and  _362
REMARK  157  A    between atoms: _362  and  _363
REMARK  158  A    between atoms: _362  and  _365
REMARK  159  A    between atoms: _365  and  _366
REMARK  160  A    between atoms: _371  and  _372
REMARK  161  A    between atoms: _374  and  _376
REMARK  162  A    between atoms: _376  and  _377
REMARK  163  A    between atoms: _376  and  _379
REMARK  164  A    between atoms: _379  and  _380
REMARK  165  A    between atoms: _382  and  _384
REMARK  166  A    between atoms: _384  and  _385
REMARK  167  A    between atoms: _388  and  _390
REMARK  168  A    between atoms: _390  and  _391
REMARK  169  A    between atoms: _390  and  _393
REMARK  170  A    between atoms: _396  and  _398
REMARK  171  A    between atoms: _398  and  _399
REMARK  172  A    between atoms: _398  and  _401
REMARK  173  A    between atoms: _404  and  _406
REMARK  174  A    between atoms: _406  and  _407
REMARK  175  A    between atoms: _406  and  _409
REMARK  176  A    between atoms: _409  and  _410
REMARK  177  A    between atoms: _413  and  _415
REMARK  178  A    between atoms: _415  and  _416
REMARK  179  A    between atoms: _415  and  _418
REMARK  180  A    between atoms: _418  and  _419
REMARK  181  A    between atoms: _422  and  _424
REMARK  182  A    between atoms: _424  and  _425
REMARK  183  A    between atoms: _424  and  _427
REMARK  184  A    between atoms: _427  and  _428
REMARK  185  A    between atoms: _428  and  _429
REMARK  186  A    between atoms: _429  and  _430
REMARK  187  A    between atoms: _430  and  _431
REMARK  188  A    between atoms: _435  and  _437
REMARK  189  A    between atoms: _437  and  _438
REMARK  190  A    between atoms: _437  and  _440
REMARK  191  A    between atoms: _440  and  _441
REMARK  192  A    between atoms: _446  and  _448
REMARK  193  A    between atoms: _448  and  _449
REMARK  194  A    between atoms: _448  and  _451
REMARK  195  A    between atoms: _451  and  _452
REMARK  196  A    between atoms: _457  and  _459
REMARK  197  A    between atoms: _459  and  _460
REMARK  198  A    between atoms: _459  and  _462
REMARK  199  A    between atoms: _462  and  _463
REMARK  200  A    between atoms: _466  and  _468
REMARK  201  A    between atoms: _468  and  _469
REMARK  202  A    between atoms: _471  and  _473
REMARK  203  A    between atoms: _473  and  _474
REMARK  204  A    between atoms: _473  and  _476
REMARK  205  A    between atoms: _476  and  _477
REMARK  206  A    between atoms: _480  and  _482
REMARK  207  A    between atoms: _482  and  _483
REMARK  208  A    between atoms: _482  and  _485
REMARK  209  A    between atoms: _485  and  _486
REMARK  210  A    between atoms: _486  and  _487
REMARK  211  A    between atoms: _487  and  _488
REMARK  212  A    between atoms: _488  and  _489
REMARK  213  A    between atoms: _493  and  _495
REMARK  214  A    between atoms: _495  and  _496
REMARK  215  A    between atoms: _495  and  _498
REMARK                            x       y       z     vdW  Elec       q    Type
REMARK                         _______ _______ _______ _____ _____    ______ ____
ROOT
ATOM      1  CA  GLY A   1       8.706  -1.459  -1.023  0.00  0.00    +0.156 C 
ENDROOT
BRANCH   1   2
ATOM      2  N   GLY A   1       9.507  -2.621  -1.435  0.00  0.00    -0.238 NA
ATOM      3  H   GLY A   1      10.463  -2.472  -1.815  0.00  0.00    +0.142 HD
ENDBRANCH   1   2
BRANCH   1   4
ATOM      4  C   GLY A   1       7.425  -1.382  -1.849  0.00  0.00    +0.226 C 
ATOM      5  O   GLY A   1       6.339  -1.164  -1.298  0.00  0.00    -0.287 OA
ENDBRANCH   1   4
TORSDOF 2
REMARK  Name = ../refined-set-2016/4b7p/4b7p_pocket.pdb
REMARK  215 active torsions:
REMARK  status: ('A' for Active; 'I' for Inactive)
REMARK    1  A    between atoms: _1  and  _3
REMARK    2  A    between atoms: _3  and  _4
REMARK    3  A    between atoms: _3  and  _6
REMARK    4  A    between atoms: _6  and  _7
REMARK    5  A    between atoms: _10  and  _12
REMARK    6  A    between atoms: _12  and  _13
REMARK    7  A    between atoms: _12  and  _15
REMARK    8  A    between atoms: _15  and  _16
REMARK    9  A    between atoms: _22  and  _24
REMARK   10  A    between atoms: _24  and  _25
REMARK   11  A    between atoms: _24  and  _27
REMARK   12  A    between atoms: _27  and  _28
REMARK   13  A    between atoms: _31  and  _33
REMARK   14  A    between atoms: _33  and  _34
REMARK   15  A    between atoms: _33  and  _36
REMARK   16  A    between atoms: _36  and  _37
REMARK   17  A    between atoms: _37  and  _38
REMARK   18  A    between atoms: _41  and  _43
REMARK   19  A    between atoms: _43  and  _44
REMARK   20  A    between atoms: _43  and  _46
REMARK   21  A    between atoms: _46  and  _47
REMARK   22  A    between atoms: _50  and  _52
REMARK   23  A    between atoms: _52  and  _53
REMARK   24  A    between atoms: _52  and  _55
REMARK   25  A    between atoms: _55  and  _56
REMARK   26  A    between atoms: _59  and  _61
REMARK   27  A    between atoms: _61  and  _62
REMARK   28  A    between atoms: _61  and  _64
REMARK   29  A    between atoms: _64  and  _65
REMARK   30  A    between atoms: _67  and  _69
REMARK   31  A    between atoms: _69  and  _70
REMARK   32  A    between atoms: _69  and  _72
REMARK   33  A    between atoms: _72  and  _73
REMARK   34  A    between atoms: _78  and  _80
REMARK   35  A    between atoms: _80  and  _81
REMARK   36  A    between atoms: _80  and  _83
REMARK   37  A    between atoms: _83  and  _84
REMARK   38  A    between atoms: _86  and  _88
REMARK   39  A    between atoms: _88  and  _89
REMARK   40  A    between atoms: _88  and  _91
REMARK   41  A    between atoms: _91  and  _92
REMARK   42  A    between atoms: _94  and  _96
REMARK   43  A    between atoms: _96  and  _97
REMARK   44  A    between atoms: _96  and  _99
REMARK   45  A    between atoms: _99  and  _100
REMARK   46  A    between atoms: _103  and  _105
REMARK   47  A    between atoms: _105  and  _106
REMARK   48  A    between atoms: _109  and  _111
REMARK   49  A    between atoms: _111  and  _112
REMARK   50  A    between atoms: _111  and  _114
REMARK   51  A    between atoms: _114  and  _115
REMARK   52  A    between atoms: _118  and  _120
REMARK   53  A    between atoms: _120  and  _121
REMARK   54  A    between atoms: _120  and  _123
REMARK   55  A    between atoms: _123  and  _124
REMARK   56  A    between atoms: _127  and  _129
REMARK   57  A    between atoms: _129  and  _130
REMARK   58  A    between atoms: _129  and  _132
REMARK   59  A    between atoms: _132  and  _133
REMARK   60  A    between atoms: _133  and  _134
REMARK   61  A    between atoms: _134  and  _135
REMARK   62  A    between atoms: _135  and  _136
REMARK   63  A    between atoms: _140  and  _142
REMARK   64  A    between atoms: _142  and  _143
REMARK   65  A    between atoms: _142  and  _145
REMARK   66  A    between atoms: _145  and  _146
REMARK   67  A    between atoms: _149  and  _151
REMARK   68  A    between atoms: _151  and  _152
REMARK   69  A    between atoms: _151  and  _154
REMARK   70  A    between atoms: _154  and  _155
REMARK   71  A    between atoms: _155  and  _156
REMARK   72  A    between atoms: _159  and  _161
REMARK   73  A    between atoms: _161  and  _162
REMARK   74  A    between atoms: _161  and  _164
REMARK   75  A    between atoms: _164  and  _165
REMARK   76  A    between atoms: _168  and  _170
REMARK   77  A    between atoms: _170  and  _171
REMARK   78  A    between atoms: _170  and  _173
REMARK   79  A    between atoms: _176  and  _178
REMARK   80  A    between atoms: _178  and  _179
REMARK   81  A    between atoms: _178  and  _181
REMARK   82  A    between atoms: _181  and  _182
REMARK   83  A    between atoms: _185  and  _187
REMARK   84  A    between atoms: _187  and  _188
REMARK   85  A    between atoms: _187  and  _190
REMARK   86  A    between atoms: _190  and  _191
REMARK   87  A    between atoms: _194  and  _196
REMARK   88  A    between atoms: _196  and  _197
REMARK   89  A    between atoms: _199  and  _201
REMARK   90  A    between atoms: _201  and  _202
REMARK   91  A    between atoms: _201  and  _204
REMARK   92  A    between atoms: _204  and  _205
REMARK   93  A    between atoms: _208  and  _210
REMARK   94  A    between atoms: _210  and  _211
REMARK   95  A    between atoms: _213  and  _215
REMARK   96  A    between atoms: _215  and  _216
REMARK   97  A    between atoms: _215  and  _218
REMARK   98  A    between atoms: _218  and  _219
REMARK   99  A    between atoms: _219  and  _220
REMARK  100  A    between atoms: _222  and  _224
REMARK  101  A    between atoms: _224  and  _225
REMARK  102  A    between atoms: _224  and  _227
REMARK  103  A    between atoms: _227  and  _228
REMARK  104  A    between atoms: _231  and  _233
REMARK  105  A    between atoms: _233  and  _234
REMARK  106  A    between atoms: _237  and  _239
REMARK  107  A    between atoms: _239  and  _240
REMARK  108  A    between atoms: _239  and  _242
REMARK  109  A    between atoms: _242  and  _243
REMARK  110  A    between atoms: _246  and  _248
REMARK  111  A    between atoms: _248  and  _249
REMARK  112  A    between atoms: _248  and  _251
REMARK  113  A    between atoms: _251  and  _252
REMARK  114  A    between atoms: _255  and  _257
REMARK  115  A    between atoms: _257  and  _258
REMARK  116  A    between atoms: _257  and  _260
REMARK  117  A    between atoms: _260  and  _261
REMARK  118  A    between atoms: _266  and  _268
REMARK  119  A    between atoms: _268  and  _269
REMARK  120  A    between atoms: _268  and  _271
REMARK  121  A    between atoms: _271  and  _272
REMARK  122  A    between atoms: _277  and  _279
REMARK  123  A    between atoms: _279  and  _280
REMARK  124  A    between atoms: _279  and  _282
REMARK  125  A    between atoms: _282  and  _283
REMARK  126  A    between atoms: _286  and  _288
REMARK  127  A    between atoms: _288  and  _289
REMARK  128  A    between atoms: _291  and  _293
REMARK  129  A    between atoms: _293  and  _294
REMARK  130  A    between atoms: _293  and  _296
REMARK  131  A    between atoms: _296  and  _297
REMARK  132  A    between atoms: _300  and  _302
REMARK  133  A    between atoms: _302  and  _303
REMARK  134  A    between atoms: _302  and  _305
REMARK  135  A    between atoms: _305  and  _306
REMARK  136  A    between atoms: _306  and  _307
REMARK  137  A    between atoms: _307  and  _308
REMARK  138  A    between atoms: _308  and  _309
REMARK  139  A    between atoms: _313  and  _315
REMARK  140  A    between atoms: _315  and  _316
REMARK  141  A    between atoms: _318  and  _320
REMARK  142  A    between atoms: _320  and  _321
REMARK  143  A    between atoms: _320  and  _323
REMARK  144  A    between atoms: _323  and  _324
REMARK  145  A    between atoms: _330  and  _332
REMARK  146  A    between atoms: _332  and  _333
REMARK  147  A    between atoms: _335  and  _337
REMARK  148  A    between atoms: _337  and  _338
REMARK  149  A    between atoms: _337  and  _340
REMARK  150  A    between atoms: _343  and  _345
REMARK  151  A    between atoms: _345  and  _346
REMARK  152  A    between atoms: _348  and  _350
REMARK  153  A    between atoms: _350  and  _351
REMARK  154  A    between atoms: _350  and  _353
REMARK  155  A    between atoms: _353  and  _354
REMARK  156  A    between atoms: _360  and  _362
REMARK  157  A    between atoms: _362  and  _363
REMARK  158  A    between atoms: _362  and  _365
REMARK  159  A    between atoms: _365  and  _366
REMARK  160  A    between atoms: _371  and  _372
REMARK  161  A    between atoms: _374  and  _376
REMARK  162  A    between atoms: _376  and  _377
REMARK  163  A    between atoms: _376  and  _379
REMARK  164  A    between atoms: _379  and  _380
REMARK  165  A    between atoms: _382  and  _384
REMARK  166  A    between atoms: _384  and  _385
REMARK  167  A    between atoms: _388  and  _390
REMARK  168  A    between atoms: _390  and  _391
REMARK  169  A    between atoms: _390  and  _393
REMARK  170  A    between atoms: _396  and  _398
REMARK  171  A    between atoms: _398  and  _399
REMARK  172  A    between atoms: _398  and  _401
REMARK  173  A    between atoms: _404  and  _406
REMARK  174  A    between atoms: _406  and  _407
REMARK  175  A    between atoms: _406  and  _409
REMARK  176  A    between atoms: _409  and  _410
REMARK  177  A    between atoms: _413  and  _415
REMARK  178  A    between atoms: _415  and  _416
REMARK  179  A    between atoms: _415  and  _418
REMARK  180  A    between atoms: _418  and  _419
REMARK  181  A    between atoms: _422  and  _424
REMARK  182  A    between atoms: _424  and  _425
REMARK  183  A    between atoms: _424  and  _427
REMARK  184  A    between atoms: _427  and  _428
REMARK  185  A    between atoms: _428  and  _429
REMARK  186  A    between atoms: _429  and  _430
REMARK  187  A    between atoms: _430  and  _431
REMARK  188  A    between atoms: _435  and  _437
REMARK  189  A    between atoms: _437  and  _438
REMARK  190  A    between atoms: _437  and  _440
REMARK  191  A    between atoms: _440  and  _441
REMARK  192  A    between atoms: _446  and  _448
REMARK  193  A    between atoms: _448  and  _449
REMARK  194  A    between atoms: _448  and  _451
REMARK  195  A    between atoms: _451  and  _452
REMARK  196  A    between atoms: _457  and  _459
REMARK  197  A    between atoms: _459  and  _460
REMARK  198  A    between atoms: _459  and  _462
REMARK  199  A    between atoms: _462  and  _463
REMARK  200  A    between atoms: _466  and  _468
REMARK  201  A    between atoms: _468  and  _469
REMARK  202  A    between atoms: _471  and  _473
REMARK  203  A    between atoms: _473  and  _474
REMARK  204  A    between atoms: _473  and  _476
REMARK  205  A    between atoms: _476  and  _477
REMARK  206  A    between atoms: _480  and  _482
REMARK  207  A    between atoms: _482  and  _483
REMARK  208  A    between atoms: _482  and  _485
REMARK  209  A    between atoms: _485  and  _486
REMARK  210  A    between atoms: _486  and  _487
REMARK  211  A    between atoms: _487  and  _488
REMARK  212  A    between atoms: _488  and  _489
REMARK  213  A    between atoms: _493  and  _495
REMARK  214  A    between atoms: _495  and  _496
REMARK  215  A    between atoms: _495  and  _498
REMARK                            x       y       z     vdW  Elec       q    Type
REMARK                         _______ _______ _______ _____ _____    ______ ____
ROOT
ATOM      1  CA  PHE A   5       8.775  -3.209   6.751  0.00  0.00    +0.153 C 
ENDROOT
BRANCH   1   2
ATOM      2  C   PHE A   5       9.636  -4.481   6.983  0.00  0.00    +0.241 C 
ATOM      3  O   PHE A   5      10.585  -4.461   7.740  0.00  0.00    -0.273 OA
ATOM      4  N   TYR A   6       9.265  -5.590   6.335  0.00  0.00    -0.297 N 
ATOM      5  H   TYR A   6       8.505  -5.547   5.627  0.00  0.00    +0.150 HD
BRANCH   4   6
ATOM      6  CA  TYR A   6       9.923  -6.861   6.618  0.00  0.00    +0.153 C 
BRANCH   6   7
ATOM      7  C   TYR A   6      11.335  -6.963   6.073  0.00  0.00    +0.241 C 
ATOM      8  O   TYR A   6      12.054  -7.889   6.496  0.00  0.00    -0.273 OA
ATOM      9  N   SER A   7      11.747  -5.984   5.264  0.00  0.00    -0.295 N 
ATOM     10  H   SER A   7      11.056  -5.268   4.961  0.00  0.00    +0.150 HD
BRANCH   9  11
ATOM     11  CA  SER A   7      13.141  -5.868   4.777  0.00  0.00    +0.178 C 
BRANCH  11  12
ATOM     12  C   SER A   7      14.093  -5.693   5.964  0.00  0.00    +0.243 C 
ATOM     13  N   ALA A   8      13.566  -5.287   7.127  0.00  0.00    -0.298 N 
ATOM     14  H   ALA A   8      12.551  -5.072   7.202  0.00  0.00    +0.150 HD
ATOM     15  O   SER A   7      15.271  -5.946   5.820  0.00  0.00    -0.273 OA
BRANCH  13  16
ATOM     16  CA  ALA A   8      14.445  -5.151   8.293  0.00  0.00    +0.137 C 
ATOM     17  CB  ALA A   8      13.654  -4.676   9.524  0.00  0.00    +0.030 C 
BRANCH  16  18
ATOM     18  C   ALA A   8      15.163  -6.485   8.563  0.00  0.00    +0.227 C 
ATOM     19  O   ALA A   8      16.266  -6.468   9.048  0.00  0.00    -0.286 OA
ENDBRANCH  16  18
ENDBRANCH  13  16
ENDBRANCH  11  12
BRANCH  11  20
ATOM     20  CB  SER A   7      13.311  -4.701   3.794  0.00  0.00    +0.166 C 
BRANCH  20  21
ATOM     21  OG  SER A   7      13.075  -3.447   4.411  0.00  0.00    -0.380 OA
ATOM     22  H   SER A   7      12.150  -3.423   4.763  0.00  0.00    +0.211 HD
ENDBRANCH  20  21
ENDBRANCH  11  20
ENDBRANCH   9  11
ENDBRANCH   6   7
BRANCH   6  23
ATOM     23  CB  TYR A   6       9.019  -8.059   6.174  0.00  0.00    +0.055 C 
BRANCH  23  24
ATOM     24  CG  TYR A   6       7.759  -8.028   6.964  0.00  0.00    -0.020 A 
ATOM     25  CD2 TYR A   6       7.711  -8.552   8.271  0.00  0.00    -0.001 A 
ATOM     26  CE2 TYR A   6       6.540  -8.479   9.046  0.00  0.00    +0.036 A 
ATOM     27  CZ  TYR A   6       5.424  -7.941   8.483  0.00  0.00    +0.134 A 
ATOM     28  CE1 TYR A   6       5.419  -7.462   7.176  0.00  0.00    +0.036 A 
ATOM     29  CD1 TYR A   6       6.584  -7.498   6.410  0.00  0.00    -0.001 A 
BRANCH  27  30
ATOM     30  OH  TYR A   6       4.283  -7.919   9.259  0.00  0.00    -0.506 OA
ATOM     31  HH  TYR A   6       3.972  -6.985   9.360  0.00  0.00    +0.292 HD
ENDBRANCH  27  30
ENDBRANCH  23  24
ENDBRANCH   6  23
ENDBRANCH   4   6
ENDBRANCH   1   2
BRANCH   1  33
ATOM     32  C   GLY A   4       9.297  -3.227   4.391  0.00  0.00    +0.243 C 
ATOM     33  N   PHE A   5       8.355  -3.138   5.346  0.00  0.00    -0.297 N 
ATOM     34  H   PHE A   5       7.352  -3.022   5.095  0.00  0.00    +0.150 HD
ATOM     35  O   GLY A   4      10.488  -3.321   4.659  0.00  0.00    -0.273 OA
BRANCH  32  36
ATOM     36  CA  GLY A   4       8.874  -3.164   2.952  0.00  0.00    +0.176 C 
BRANCH  36  39
ATOM     37  C   VAL A   3       7.207  -4.941   3.053  0.00  0.00    +0.241 C 
ATOM     38  O   VAL A   3       7.985  -5.708   3.627  0.00  0.00    -0.273 OA
ATOM     39  N   GLY A   4       7.534  -3.687   2.717  0.00  0.00    -0.295 N 
ATOM     40  H   GLY A   4       6.817  -3.074   2.279  0.00  0.00    +0.150 HD
BRANCH  37  41
ATOM     41  CA  VAL A   3       5.780  -5.368   2.682  0.00  0.00    +0.149 C 
BRANCH  41  44
ATOM     42  C   GLY A   2       4.206  -3.739   1.792  0.00  0.00    +0.243 C 
ATOM     43  O   GLY A   2       3.648  -3.651   2.850  0.00  0.00    -0.273 OA
ATOM     44  N   VAL A   3       5.253  -4.519   1.609  0.00  0.00    -0.297 N 
ATOM     45  H   VAL A   3       5.718  -4.532   0.679  0.00  0.00    +0.150 HD
BRANCH  42  46
ATOM     46  CA  GLY A   2       3.683  -2.956   0.600  0.00  0.00    +0.176 C 
BRANCH  46  48
ATOM     47  C   PHE A   1       4.010  -4.432  -1.315  0.00  0.00    +0.239 C 
ATOM     48  N   GLY A   2       4.304  -3.305  -0.655  0.00  0.00    -0.296 N 
ATOM     49  H   GLY A   2       5.007  -2.656  -1.062  0.00  0.00    +0.150 HD
ATOM     50  O   PHE A   1       3.202  -5.258  -0.881  0.00  0.00    -0.274 OA
BRANCH  47  51
ATOM     51  CA  PHE A   1       4.691  -4.631  -2.667  0.00  0.00    +0.149 C 
BRANCH  51  52
ATOM     52  N   PHE A   1       5.666  -3.606  -3.016  0.00  0.00    -0.238 NA
ATOM     53  H   PHE A   1       6.651  -3.714  -2.699  0.00  0.00    +0.142 HD
ENDBRANCH  51  52
BRANCH  51  54
ATOM     54  CB  PHE A   1       5.332  -6.036  -2.795  0.00  0.00    +0.053 C 
BRANCH  54  55
ATOM     55  CG  PHE A   1       5.661  -6.430  -4.225  0.00  0.00    -0.020 A 
ATOM     56  CD2 PHE A   1       6.798  -5.956  -4.873  0.00  0.00    -0.004 A 
ATOM     57  CE2 PHE A   1       7.096  -6.330  -6.194  0.00  0.00    -0.000 A 
ATOM     58  CZ  PHE A   1       6.251  -7.181  -6.867  0.00  0.00    -0.000 A 
ATOM     59  CE1 PHE A   1       5.115  -7.656  -6.234  0.00  0.00    -0.000 A 
ATOM     60  CD1 PHE A   1       4.828  -7.283  -4.915  0.00  0.00    -0.004 A 
ENDBRANCH  54  55
ENDBRANCH  51  54
ENDBRANCH  47  51
ENDBRANCH  46  48
ENDBRANCH  42  46
ENDBRANCH  41  44
BRANCH  41  61
ATOM     61  CB  VAL A   3       5.696  -6.878   2.321  0.00  0.00    +0.027 C 
ATOM     62  CG2 VAL A   3       4.202  -7.295   2.409  0.00  0.00    +0.002 C 
ATOM     63  CG1 VAL A   3       6.304  -7.208   0.938  0.00  0.00    +0.002 C 
ENDBRANCH  41  61
ENDBRANCH  37  41
ENDBRANCH  36  39
ENDBRANCH  32  36
ENDBRANCH   1  33
BRANCH   1  64
ATOM     64  CB  PHE A   5       7.548  -3.256   7.674  0.00  0.00    +0.055 C 
BRANCH  64  65
ATOM     65  CG  PHE A   5       7.902  -3.629   9.082  0.00  0.00    -0.020 A 
ATOM     66  CD2 PHE A   5       8.449  -2.674   9.937  0.00  0.00    -0.004 A 
ATOM     67  CE2 PHE A   5       8.844  -3.020  11.233  0.00  0.00    -0.000 A 
ATOM     68  CZ  PHE A   5       8.714  -4.355  11.654  0.00  0.00    -0.000 A 
ATOM     69  CE1 PHE A   5       8.221  -5.343  10.797  0.00  0.00    -0.000 A 
ATOM     70  CD1 PHE A   5       7.798  -4.981   9.519  0.00  0.00    -0.004 A 
ENDBRANCH  64  65
ENDBRANCH   1  64
TORSDOF 26
REMARK  Name = ../refined-set-2016/4b7p/4b7p_pocket.pdb
REMARK  215 active torsions:
REMARK  status: ('A' for Active; 'I' for Inactive)
REMARK    1  A    between atoms: _1  and  _3
REMARK    2  A    between atoms: _3  and  _4
REMARK    3  A    between atoms: _3  and  _6
REMARK    4  A    between atoms: _6  and  _7
REMARK    5  A    between atoms: _10  and  _12
REMARK    6  A    between atoms: _12  and  _13
REMARK    7  A    between atoms: _12  and  _15
REMARK    8  A    between atoms: _15  and  _16
REMARK    9  A    between atoms: _22  and  _24
REMARK   10  A    between atoms: _24  and  _25
REMARK   11  A    between atoms: _24  and  _27
REMARK   12  A    between atoms: _27  and  _28
REMARK   13  A    between atoms: _31  and  _33
REMARK   14  A    between atoms: _33  and  _34
REMARK   15  A    between atoms: _33  and  _36
REMARK   16  A    between atoms: _36  and  _37
REMARK   17  A    between atoms: _37  and  _38
REMARK   18  A    between atoms: _41  and  _43
REMARK   19  A    between atoms: _43  and  _44
REMARK   20  A    between atoms: _43  and  _46
REMARK   21  A    between atoms: _46  and  _47
REMARK   22  A    between atoms: _50  and  _52
REMARK   23  A    between atoms: _52  and  _53
REMARK   24  A    between atoms: _52  and  _55
REMARK   25  A    between atoms: _55  and  _56
REMARK   26  A    between atoms: _59  and  _61
REMARK   27  A    between atoms: _61  and  _62
REMARK   28  A    between atoms: _61  and  _64
REMARK   29  A    between atoms: _64  and  _65
REMARK   30  A    between atoms: _67  and  _69
REMARK   31  A    between atoms: _69  and  _70
REMARK   32  A    between atoms: _69  and  _72
REMARK   33  A    between atoms: _72  and  _73
REMARK   34  A    between atoms: _78  and  _80
REMARK   35  A    between atoms: _80  and  _81
REMARK   36  A    between atoms: _80  and  _83
REMARK   37  A    between atoms: _83  and  _84
REMARK   38  A    between atoms: _86  and  _88
REMARK   39  A    between atoms: _88  and  _89
REMARK   40  A    between atoms: _88  and  _91
REMARK   41  A    between atoms: _91  and  _92
REMARK   42  A    between atoms: _94  and  _96
REMARK   43  A    between atoms: _96  and  _97
REMARK   44  A    between atoms: _96  and  _99
REMARK   45  A    between atoms: _99  and  _100
REMARK   46  A    between atoms: _103  and  _105
REMARK   47  A    between atoms: _105  and  _106
REMARK   48  A    between atoms: _109  and  _111
REMARK   49  A    between atoms: _111  and  _112
REMARK   50  A    between atoms: _111  and  _114
REMARK   51  A    between atoms: _114  and  _115
REMARK   52  A    between atoms: _118  and  _120
REMARK   53  A    between atoms: _120  and  _121
REMARK   54  A    between atoms: _120  and  _123
REMARK   55  A    between atoms: _123  and  _124
REMARK   56  A    between atoms: _127  and  _129
REMARK   57  A    between atoms: _129  and  _130
REMARK   58  A    between atoms: _129  and  _132
REMARK   59  A    between atoms: _132  and  _133
REMARK   60  A    between atoms: _133  and  _134
REMARK   61  A    between atoms: _134  and  _135
REMARK   62  A    between atoms: _135  and  _136
REMARK   63  A    between atoms: _140  and  _142
REMARK   64  A    between atoms: _142  and  _143
REMARK   65  A    between atoms: _142  and  _145
REMARK   66  A    between atoms: _145  and  _146
REMARK   67  A    between atoms: _149  and  _151
REMARK   68  A    between atoms: _151  and  _152
REMARK   69  A    between atoms: _151  and  _154
REMARK   70  A    between atoms: _154  and  _155
REMARK   71  A    between atoms: _155  and  _156
REMARK   72  A    between atoms: _159  and  _161
REMARK   73  A    between atoms: _161  and  _162
REMARK   74  A    between atoms: _161  and  _164
REMARK   75  A    between atoms: _164  and  _165
REMARK   76  A    between atoms: _168  and  _170
REMARK   77  A    between atoms: _170  and  _171
REMARK   78  A    between atoms: _170  and  _173
REMARK   79  A    between atoms: _176  and  _178
REMARK   80  A    between atoms: _178  and  _179
REMARK   81  A    between atoms: _178  and  _181
REMARK   82  A    between atoms: _181  and  _182
REMARK   83  A    between atoms: _185  and  _187
REMARK   84  A    between atoms: _187  and  _188
REMARK   85  A    between atoms: _187  and  _190
REMARK   86  A    between atoms: _190  and  _191
REMARK   87  A    between atoms: _194  and  _196
REMARK   88  A    between atoms: _196  and  _197
REMARK   89  A    between atoms: _199  and  _201
REMARK   90  A    between atoms: _201  and  _202
REMARK   91  A    between atoms: _201  and  _204
REMARK   92  A    between atoms: _204  and  _205
REMARK   93  A    between atoms: _208  and  _210
REMARK   94  A    between atoms: _210  and  _211
REMARK   95  A    between atoms: _213  and  _215
REMARK   96  A    between atoms: _215  and  _216
REMARK   97  A    between atoms: _215  and  _218
REMARK   98  A    between atoms: _218  and  _219
REMARK   99  A    between atoms: _219  and  _220
REMARK  100  A    between atoms: _222  and  _224
REMARK  101  A    between atoms: _224  and  _225
REMARK  102  A    between atoms: _224  and  _227
REMARK  103  A    between atoms: _227  and  _228
REMARK  104  A    between atoms: _231  and  _233
REMARK  105  A    between atoms: _233  and  _234
REMARK  106  A    between atoms: _237  and  _239
REMARK  107  A    between atoms: _239  and  _240
REMARK  108  A    between atoms: _239  and  _242
REMARK  109  A    between atoms: _242  and  _243
REMARK  110  A    between atoms: _246  and  _248
REMARK  111  A    between atoms: _248  and  _249
REMARK  112  A    between atoms: _248  and  _251
REMARK  113  A    between atoms: _251  and  _252
REMARK  114  A    between atoms: _255  and  _257
REMARK  115  A    between atoms: _257  and  _258
REMARK  116  A    between atoms: _257  and  _260
REMARK  117  A    between atoms: _260  and  _261
REMARK  118  A    between atoms: _266  and  _268
REMARK  119  A    between atoms: _268  and  _269
REMARK  120  A    between atoms: _268  and  _271
REMARK  121  A    between atoms: _271  and  _272
REMARK  122  A    between atoms: _277  and  _279
REMARK  123  A    between atoms: _279  and  _280
REMARK  124  A    between atoms: _279  and  _282
REMARK  125  A    between atoms: _282  and  _283
REMARK  126  A    between atoms: _286  and  _288
REMARK  127  A    between atoms: _288  and  _289
REMARK  128  A    between atoms: _291  and  _293
REMARK  129  A    between atoms: _293  and  _294
REMARK  130  A    between atoms: _293  and  _296
REMARK  131  A    between atoms: _296  and  _297
REMARK  132  A    between atoms: _300  and  _302
REMARK  133  A    between atoms: _302  and  _303
REMARK  134  A    between atoms: _302  and  _305
REMARK  135  A    between atoms: _305  and  _306
REMARK  136  A    between atoms: _306  and  _307
REMARK  137  A    between atoms: _307  and  _308
REMARK  138  A    between atoms: _308  and  _309
REMARK  139  A    between atoms: _313  and  _315
REMARK  140  A    between atoms: _315  and  _316
REMARK  141  A    between atoms: _318  and  _320
REMARK  142  A    between atoms: _320  and  _321
REMARK  143  A    between atoms: _320  and  _323
REMARK  144  A    between atoms: _323  and  _324
REMARK  145  A    between atoms: _330  and  _332
REMARK  146  A    between atoms: _332  and  _333
REMARK  147  A    between atoms: _335  and  _337
REMARK  148  A    between atoms: _337  and  _338
REMARK  149  A    between atoms: _337  and  _340
REMARK  150  A    between atoms: _343  and  _345
REMARK  151  A    between atoms: _345  and  _346
REMARK  152  A    between atoms: _348  and  _350
REMARK  153  A    between atoms: _350  and  _351
REMARK  154  A    between atoms: _350  and  _353
REMARK  155  A    between atoms: _353  and  _354
REMARK  156  A    between atoms: _360  and  _362
REMARK  157  A    between atoms: _362  and  _363
REMARK  158  A    between atoms: _362  and  _365
REMARK  159  A    between atoms: _365  and  _366
REMARK  160  A    between atoms: _371  and  _372
REMARK  161  A    between atoms: _374  and  _376
REMARK  162  A    between atoms: _376  and  _377
REMARK  163  A    between atoms: _376  and  _379
REMARK  164  A    between atoms: _379  and  _380
REMARK  165  A    between atoms: _382  and  _384
REMARK  166  A    between atoms: _384  and  _385
REMARK  167  A    between atoms: _388  and  _390
REMARK  168  A    between atoms: _390  and  _391
REMARK  169  A    between atoms: _390  and  _393
REMARK  170  A    between atoms: _396  and  _398
REMARK  171  A    between atoms: _398  and  _399
REMARK  172  A    between atoms: _398  and  _401
REMARK  173  A    between atoms: _404  and  _406
REMARK  174  A    between atoms: _406  and  _407
REMARK  175  A    between atoms: _406  and  _409
REMARK  176  A    between atoms: _409  and  _410
REMARK  177  A    between atoms: _413  and  _415
REMARK  178  A    between atoms: _415  and  _416
REMARK  179  A    between atoms: _415  and  _418
REMARK  180  A    between atoms: _418  and  _419
REMARK  181  A    between atoms: _422  and  _424
REMARK  182  A    between atoms: _424  and  _425
REMARK  183  A    between atoms: _424  and  _427
REMARK  184  A    between atoms: _427  and  _428
REMARK  185  A    between atoms: _428  and  _429
REMARK  186  A    between atoms: _429  and  _430
REMARK  187  A    between atoms: _430  and  _431
REMARK  188  A    between atoms: _435  and  _437
REMARK  189  A    between atoms: _437  and  _438
REMARK  190  A    between atoms: _437  and  _440
REMARK  191  A    between atoms: _440  and  _441
REMARK  192  A    between atoms: _446  and  _448
REMARK  193  A    between atoms: _448  and  _449
REMARK  194  A    between atoms: _448  and  _451
REMARK  195  A    between atoms: _451  and  _452
REMARK  196  A    between atoms: _457  and  _459
REMARK  197  A    between atoms: _459  and  _460
REMARK  198  A    between atoms: _459  and  _462
REMARK  199  A    between atoms: _462  and  _463
REMARK  200  A    between atoms: _466  and  _468
REMARK  201  A    between atoms: _468  and  _469
REMARK  202  A    between atoms: _471  and  _473
REMARK  203  A    between atoms: _473  and  _474
REMARK  204  A    between atoms: _473  and  _476
REMARK  205  A    between atoms: _476  and  _477
REMARK  206  A    between atoms: _480  and  _482
REMARK  207  A    between atoms: _482  and  _483
REMARK  208  A    between atoms: _482  and  _485
REMARK  209  A    between atoms: _485  and  _486
REMARK  210  A    between atoms: _486  and  _487
REMARK  211  A    between atoms: _487  and  _488
REMARK  212  A    between atoms: _488  and  _489
REMARK  213  A    between atoms: _493  and  _495
REMARK  214  A    between atoms: _495  and  _496
REMARK  215  A    between atoms: _495  and  _498
REMARK                            x       y       z     vdW  Elec       q    Type
REMARK                         _______ _______ _______ _____ _____    ______ ____
ROOT
ATOM      1  CA  VAL A   1      13.289  -6.084  15.460  0.00  0.00    +0.133 C 
ENDROOT
BRANCH   1   2
ATOM      2  CB  VAL A   1      12.572  -5.893  14.114  0.00  0.00    +0.023 C 
ATOM      3  CG2 VAL A   1      12.060  -4.454  14.013  0.00  0.00    +0.002 C 
ATOM      4  CG1 VAL A   1      13.573  -6.145  12.993  0.00  0.00    +0.002 C 
ENDBRANCH   1   2
BRANCH   1   5
ATOM      5  N   VAL A   1      13.746  -7.479  15.648  0.00  0.00    -0.239 NA
ATOM      6  H   VAL A   1      13.038  -8.232  15.764  0.00  0.00    +0.142 HD
ENDBRANCH   1   5
BRANCH   1   7
ATOM      7  C   VAL A   1      12.343  -5.797  16.608  0.00  0.00    +0.224 C 
ATOM      8  O   VAL A   1      11.444  -6.584  16.892  0.00  0.00    -0.287 OA
ENDBRANCH   1   7
TORSDOF 3
REMARK  Name = ../refined-set-2016/4b7p/4b7p_pocket.pdb
REMARK  215 active torsions:
REMARK  status: ('A' for Active; 'I' for Inactive)
REMARK    1  A    between atoms: _1  and  _3
REMARK    2  A    between atoms: _3  and  _4
REMARK    3  A    between atoms: _3  and  _6
REMARK    4  A    between atoms: _6  and  _7
REMARK    5  A    between atoms: _10  and  _12
REMARK    6  A    between atoms: _12  and  _13
REMARK    7  A    between atoms: _12  and  _15
REMARK    8  A    between atoms: _15  and  _16
REMARK    9  A    between atoms: _22  and  _24
REMARK   10  A    between atoms: _24  and  _25
REMARK   11  A    between atoms: _24  and  _27
REMARK   12  A    between atoms: _27  and  _28
REMARK   13  A    between atoms: _31  and  _33
REMARK   14  A    between atoms: _33  and  _34
REMARK   15  A    between atoms: _33  and  _36
REMARK   16  A    between atoms: _36  and  _37
REMARK   17  A    between atoms: _37  and  _38
REMARK   18  A    between atoms: _41  and  _43
REMARK   19  A    between atoms: _43  and  _44
REMARK   20  A    between atoms: _43  and  _46
REMARK   21  A    between atoms: _46  and  _47
REMARK   22  A    between atoms: _50  and  _52
REMARK   23  A    between atoms: _52  and  _53
REMARK   24  A    between atoms: _52  and  _55
REMARK   25  A    between atoms: _55  and  _56
REMARK   26  A    between atoms: _59  and  _61
REMARK   27  A    between atoms: _61  and  _62
REMARK   28  A    between atoms: _61  and  _64
REMARK   29  A    between atoms: _64  and  _65
REMARK   30  A    between atoms: _67  and  _69
REMARK   31  A    between atoms: _69  and  _70
REMARK   32  A    between atoms: _69  and  _72
REMARK   33  A    between atoms: _72  and  _73
REMARK   34  A    between atoms: _78  and  _80
REMARK   35  A    between atoms: _80  and  _81
REMARK   36  A    between atoms: _80  and  _83
REMARK   37  A    between atoms: _83  and  _84
REMARK   38  A    between atoms: _86  and  _88
REMARK   39  A    between atoms: _88  and  _89
REMARK   40  A    between atoms: _88  and  _91
REMARK   41  A    between atoms: _91  and  _92
REMARK   42  A    between atoms: _94  and  _96
REMARK   43  A    between atoms: _96  and  _97
REMARK   44  A    between atoms: _96  and  _99
REMARK   45  A    between atoms: _99  and  _100
REMARK   46  A    between atoms: _103  and  _105
REMARK   47  A    between atoms: _105  and  _106
REMARK   48  A    between atoms: _109  and  _111
REMARK   49  A    between atoms: _111  and  _112
REMARK   50  A    between atoms: _111  and  _114
REMARK   51  A    between atoms: _114  and  _115
REMARK   52  A    between atoms: _118  and  _120
REMARK   53  A    between atoms: _120  and  _121
REMARK   54  A    between atoms: _120  and  _123
REMARK   55  A    between atoms: _123  and  _124
REMARK   56  A    between atoms: _127  and  _129
REMARK   57  A    between atoms: _129  and  _130
REMARK   58  A    between atoms: _129  and  _132
REMARK   59  A    between atoms: _132  and  _133
REMARK   60  A    between atoms: _133  and  _134
REMARK   61  A    between atoms: _134  and  _135
REMARK   62  A    between atoms: _135  and  _136
REMARK   63  A    between atoms: _140  and  _142
REMARK   64  A    between atoms: _142  and  _143
REMARK   65  A    between atoms: _142  and  _145
REMARK   66  A    between atoms: _145  and  _146
REMARK   67  A    between atoms: _149  and  _151
REMARK   68  A    between atoms: _151  and  _152
REMARK   69  A    between atoms: _151  and  _154
REMARK   70  A    between atoms: _154  and  _155
REMARK   71  A    between atoms: _155  and  _156
REMARK   72  A    between atoms: _159  and  _161
REMARK   73  A    between atoms: _161  and  _162
REMARK   74  A    between atoms: _161  and  _164
REMARK   75  A    between atoms: _164  and  _165
REMARK   76  A    between atoms: _168  and  _170
REMARK   77  A    between atoms: _170  and  _171
REMARK   78  A    between atoms: _170  and  _173
REMARK   79  A    between atoms: _176  and  _178
REMARK   80  A    between atoms: _178  and  _179
REMARK   81  A    between atoms: _178  and  _181
REMARK   82  A    between atoms: _181  and  _182
REMARK   83  A    between atoms: _185  and  _187
REMARK   84  A    between atoms: _187  and  _188
REMARK   85  A    between atoms: _187  and  _190
REMARK   86  A    between atoms: _190  and  _191
REMARK   87  A    between atoms: _194  and  _196
REMARK   88  A    between atoms: _196  and  _197
REMARK   89  A    between atoms: _199  and  _201
REMARK   90  A    between atoms: _201  and  _202
REMARK   91  A    between atoms: _201  and  _204
REMARK   92  A    between atoms: _204  and  _205
REMARK   93  A    between atoms: _208  and  _210
REMARK   94  A    between atoms: _210  and  _211
REMARK   95  A    between atoms: _213  and  _215
REMARK   96  A    between atoms: _215  and  _216
REMARK   97  A    between atoms: _215  and  _218
REMARK   98  A    between atoms: _218  and  _219
REMARK   99  A    between atoms: _219  and  _220
REMARK  100  A    between atoms: _222  and  _224
REMARK  101  A    between atoms: _224  and  _225
REMARK  102  A    between atoms: _224  and  _227
REMARK  103  A    between atoms: _227  and  _228
REMARK  104  A    between atoms: _231  and  _233
REMARK  105  A    between atoms: _233  and  _234
REMARK  106  A    between atoms: _237  and  _239
REMARK  107  A    between atoms: _239  and  _240
REMARK  108  A    between atoms: _239  and  _242
REMARK  109  A    between atoms: _242  and  _243
REMARK  110  A    between atoms: _246  and  _248
REMARK  111  A    between atoms: _248  and  _249
REMARK  112  A    between atoms: _248  and  _251
REMARK  113  A    between atoms: _251  and  _252
REMARK  114  A    between atoms: _255  and  _257
REMARK  115  A    between atoms: _257  and  _258
REMARK  116  A    between atoms: _257  and  _260
REMARK  117  A    between atoms: _260  and  _261
REMARK  118  A    between atoms: _266  and  _268
REMARK  119  A    between atoms: _268  and  _269
REMARK  120  A    between atoms: _268  and  _271
REMARK  121  A    between atoms: _271  and  _272
REMARK  122  A    between atoms: _277  and  _279
REMARK  123  A    between atoms: _279  and  _280
REMARK  124  A    between atoms: _279  and  _282
REMARK  125  A    between atoms: _282  and  _283
REMARK  126  A    between atoms: _286  and  _288
REMARK  127  A    between atoms: _288  and  _289
REMARK  128  A    between atoms: _291  and  _293
REMARK  129  A    between atoms: _293  and  _294
REMARK  130  A    between atoms: _293  and  _296
REMARK  131  A    between atoms: _296  and  _297
REMARK  132  A    between atoms: _300  and  _302
REMARK  133  A    between atoms: _302  and  _303
REMARK  134  A    between atoms: _302  and  _305
REMARK  135  A    between atoms: _305  and  _306
REMARK  136  A    between atoms: _306  and  _307
REMARK  137  A    between atoms: _307  and  _308
REMARK  138  A    between atoms: _308  and  _309
REMARK  139  A    between atoms: _313  and  _315
REMARK  140  A    between atoms: _315  and  _316
REMARK  141  A    between atoms: _318  and  _320
REMARK  142  A    between atoms: _320  and  _321
REMARK  143  A    between atoms: _320  and  _323
REMARK  144  A    between atoms: _323  and  _324
REMARK  145  A    between atoms: _330  and  _332
REMARK  146  A    between atoms: _332  and  _333
REMARK  147  A    between atoms: _335  and  _337
REMARK  148  A    between atoms: _337  and  _338
REMARK  149  A    between atoms: _337  and  _340
REMARK  150  A    between atoms: _343  and  _345
REMARK  151  A    between atoms: _345  and  _346
REMARK  152  A    between atoms: _348  and  _350
REMARK  153  A    between atoms: _350  and  _351
REMARK  154  A    between atoms: _350  and  _353
REMARK  155  A    between atoms: _353  and  _354
REMARK  156  A    between atoms: _360  and  _362
REMARK  157  A    between atoms: _362  and  _363
REMARK  158  A    between atoms: _362  and  _365
REMARK  159  A    between atoms: _365  and  _366
REMARK  160  A    between atoms: _371  and  _372
REMARK  161  A    between atoms: _374  and  _376
REMARK  162  A    between atoms: _376  and  _377
REMARK  163  A    between atoms: _376  and  _379
REMARK  164  A    between atoms: _379  and  _380
REMARK  165  A    between atoms: _382  and  _384
REMARK  166  A    between atoms: _384  and  _385
REMARK  167  A    between atoms: _388  and  _390
REMARK  168  A    between atoms: _390  and  _391
REMARK  169  A    between atoms: _390  and  _393
REMARK  170  A    between atoms: _396  and  _398
REMARK  171  A    between atoms: _398  and  _399
REMARK  172  A    between atoms: _398  and  _401
REMARK  173  A    between atoms: _404  and  _406
REMARK  174  A    between atoms: _406  and  _407
REMARK  175  A    between atoms: _406  and  _409
REMARK  176  A    between atoms: _409  and  _410
REMARK  177  A    between atoms: _413  and  _415
REMARK  178  A    between atoms: _415  and  _416
REMARK  179  A    between atoms: _415  and  _418
REMARK  180  A    between atoms: _418  and  _419
REMARK  181  A    between atoms: _422  and  _424
REMARK  182  A    between atoms: _424  and  _425
REMARK  183  A    between atoms: _424  and  _427
REMARK  184  A    between atoms: _427  and  _428
REMARK  185  A    between atoms: _428  and  _429
REMARK  186  A    between atoms: _429  and  _430
REMARK  187  A    between atoms: _430  and  _431
REMARK  188  A    between atoms: _435  and  _437
REMARK  189  A    between atoms: _437  and  _438
REMARK  190  A    between atoms: _437  and  _440
REMARK  191  A    between atoms: _440  and  _441
REMARK  192  A    between atoms: _446  and  _448
REMARK  193  A    between atoms: _448  and  _449
REMARK  194  A    between atoms: _448  and  _451
REMARK  195  A    between atoms: _451  and  _452
REMARK  196  A    between atoms: _457  and  _459
REMARK  197  A    between atoms: _459  and  _460
REMARK  198  A    between atoms: _459  and  _462
REMARK  199  A    between atoms: _462  and  _463
REMARK  200  A    between atoms: _466  and  _468
REMARK  201  A    between atoms: _468  and  _469
REMARK  202  A    between atoms: _471  and  _473
REMARK  203  A    between atoms: _473  and  _474
REMARK  204  A    between atoms: _473  and  _476
REMARK  205  A    between atoms: _476  and  _477
REMARK  206  A    between atoms: _480  and  _482
REMARK  207  A    between atoms: _482  and  _483
REMARK  208  A    between atoms: _482  and  _485
REMARK  209  A    between atoms: _485  and  _486
REMARK  210  A    between atoms: _486  and  _487
REMARK  211  A    between atoms: _487  and  _488
REMARK  212  A    between atoms: _488  and  _489
REMARK  213  A    between atoms: _493  and  _495
REMARK  214  A    between atoms: _495  and  _496
REMARK  215  A    between atoms: _495  and  _498
REMARK                            x       y       z     vdW  Elec       q    Type
REMARK                         _______ _______ _______ _____ _____    ______ ____
ROOT
ATOM      1  CA  LYS A   4       3.310   6.150  20.887  0.00  0.00    +0.149 C 
ENDROOT
BRANCH   1   4
ATOM      2  C   THR A   3       4.510   4.112  20.326  0.00  0.00    +0.243 C 
ATOM      3  O   THR A   3       4.096   3.508  21.302  0.00  0.00    -0.273 OA
ATOM      4  N   LYS A   4       4.158   5.370  20.021  0.00  0.00    -0.297 N 
ATOM      5  H   LYS A   4       4.506   5.793  19.137  0.00  0.00    +0.150 HD
BRANCH   2   6
ATOM      6  CA  THR A   3       5.463   3.419  19.334  0.00  0.00    +0.176 C 
BRANCH   6   8
ATOM      7  C   ILE A   2       7.491   2.225  19.591  0.00  0.00    +0.241 C 
ATOM      8  N   THR A   3       6.265   2.425  20.037  0.00  0.00    -0.295 N 
ATOM      9  H   THR A   3       5.889   1.899  20.851  0.00  0.00    +0.150 HD
ATOM     10  O   ILE A   2       7.995   2.949  18.757  0.00  0.00    -0.273 OA
BRANCH   7  11
ATOM     11  CA  ILE A   2       8.259   1.051  20.157  0.00  0.00    +0.148 C 
BRANCH  11  14
ATOM     12  C   VAL A   1       8.430  -0.809  18.574  0.00  0.00    +0.238 C 
ATOM     13  O   VAL A   1       7.526  -1.451  19.124  0.00  0.00    -0.274 OA
ATOM     14  N   ILE A   2       8.858   0.383  18.984  0.00  0.00    -0.297 N 
ATOM     15  H   ILE A   2       9.629   0.853  18.468  0.00  0.00    +0.150 HD
BRANCH  12  16
ATOM     16  CA  VAL A   1       9.081  -1.349  17.332  0.00  0.00    +0.145 C 
BRANCH  16  17
ATOM     17  CB  VAL A   1       8.044  -1.665  16.247  0.00  0.00    +0.025 C 
ATOM     18  CG2 VAL A   1       7.264  -0.377  15.866  0.00  0.00    +0.002 C 
ATOM     19  CG1 VAL A   1       8.809  -2.250  15.039  0.00  0.00    +0.002 C 
ENDBRANCH  16  17
BRANCH  16  20
ATOM     20  N   VAL A   1       9.730  -2.587  17.800  0.00  0.00    -0.238 NA
ATOM     21  H   VAL A   1       9.144  -3.329  18.233  0.00  0.00    +0.142 HD
ENDBRANCH  16  20
ENDBRANCH  12  16
ENDBRANCH  11  14
BRANCH  11  22
ATOM     22  CB  ILE A   2       9.341   1.641  21.082  0.00  0.00    +0.027 C 
ATOM     23  CG2 ILE A   2       8.671   2.417  22.209  0.00  0.00    +0.002 C 
BRANCH  22  24
ATOM     24  CG1 ILE A   2      10.297   0.563  21.646  0.00  0.00    +0.002 C 
ATOM     25  CD1 ILE A   2       9.563  -0.628  22.018  0.00  0.00    +0.000 C 
ENDBRANCH  22  24
ENDBRANCH  11  22
ENDBRANCH   7  11
ENDBRANCH   6   8
BRANCH   6  26
ATOM     26  CB  THR A   3       4.671   2.760  18.213  0.00  0.00    +0.137 C 
ATOM     27  CG2 THR A   3       3.563   1.838  18.753  0.00  0.00    +0.034 C 
BRANCH  26  28
ATOM     28  OG1 THR A   3       4.135   3.763  17.334  0.00  0.00    -0.382 OA
ATOM     29  HG1 THR A   3       4.877   4.289  16.943  0.00  0.00    +0.210 HD
ENDBRANCH  26  28
ENDBRANCH   6  26
ENDBRANCH   2   6
ENDBRANCH   1   4
BRANCH   1  30
ATOM     30  C   LYS A   4       2.460   7.039  20.003  0.00  0.00    +0.241 C 
ATOM     31  N   HIS A   5       1.169   6.759  20.047  0.00  0.00    -0.297 N 
ATOM     32  H   HIS A   5       0.855   5.936  20.600  0.00  0.00    +0.150 HD
ATOM     33  O   LYS A   4       2.965   7.898  19.288  0.00  0.00    -0.273 OA
BRANCH  31  34
ATOM     34  CA  HIS A   5       0.179   7.550  19.358  0.00  0.00    +0.155 C 
BRANCH  34  35
ATOM     35  C   HIS A   5      -0.497   8.434  20.380  0.00  0.00    +0.241 C 
ATOM     36  O   HIS A   5      -0.657   8.029  21.541  0.00  0.00    -0.273 OA
ATOM     37  N   ASN A   6      -0.905   9.641  19.959  0.00  0.00    -0.297 N 
ATOM     38  H   ASN A   6      -0.694   9.949  18.988  0.00  0.00    +0.150 HD
BRANCH  37  39
ATOM     39  CA  ASN A   6      -1.650  10.531  20.866  0.00  0.00    +0.158 C 
BRANCH  39  40
ATOM     40  C   ASN A   6      -2.850   9.847  21.604  0.00  0.00    +0.241 C 
ATOM     41  O   ASN A   6      -3.133  10.178  22.784  0.00  0.00    -0.273 OA
ATOM     42  N   ASP A   7      -3.546   8.925  20.946  0.00  0.00    -0.298 N 
ATOM     43  H   ASP A   7      -3.257   8.707  19.971  0.00  0.00    +0.150 HD
BRANCH  42  44
ATOM     44  CA  ASP A   7      -4.711   8.181  21.505  0.00  0.00    +0.148 C 
BRANCH  44  45
ATOM     45  C   ASP A   7      -4.454   6.934  22.376  0.00  0.00    +0.227 C 
ATOM     46  O   ASP A   7      -5.420   6.300  22.846  0.00  0.00    -0.286 OA
ENDBRANCH  44  45
BRANCH  44  47
ATOM     47  CB  ASP A   7      -5.688   7.769  20.376  0.00  0.00    +0.142 C 
BRANCH  47  48
ATOM     48  CG  ASP A   7      -6.330   8.968  19.695  0.00  0.00    +0.367 C 
ATOM     49  OD2 ASP A   7      -6.255  10.069  20.282  0.00  0.00    -0.246 OA
ATOM     50  OD1 ASP A   7      -6.890   8.803  18.589  0.00  0.00    -0.246 OA
ENDBRANCH  47  48
ENDBRANCH  44  47
ENDBRANCH  42  44
ENDBRANCH  39  40
BRANCH  39  51
ATOM     51  CB  ASN A   6      -2.116  11.787  20.097  0.00  0.00    +0.114 C 
BRANCH  51  52
ATOM     52  CG  ASN A   6      -0.997  12.787  19.841  0.00  0.00    +0.222 C 
ATOM     53  OD1 ASN A   6      -0.020  12.870  20.582  0.00  0.00    -0.275 OA
ATOM     54  ND2 ASN A   6      -1.141  13.572  18.790  0.00  0.00    -0.329 N 
ATOM     55 HD21 ASN A   6      -0.416  14.285  18.570  0.00  0.00    +0.145 HD
ATOM     56 HD22 ASN A   6      -1.979  13.478  18.182  0.00  0.00    +0.145 HD
ENDBRANCH  51  52
ENDBRANCH  39  51
ENDBRANCH  37  39
ENDBRANCH  34  35
BRANCH  34  57
ATOM     57  CB  HIS A   5      -0.828   6.583  18.781  0.00  0.00    +0.076 C 
BRANCH  57  58
ATOM     58  CG  HIS A   5      -1.810   7.229  17.900  0.00  0.00    +0.082 A 
ATOM     59  ND1 HIS A   5      -2.921   7.839  18.396  0.00  0.00    -0.227 NA
ATOM     60  CE1 HIS A   5      -3.640   8.357  17.360  0.00  0.00    +0.199 A 
ATOM     61  NE2 HIS A   5      -2.991   8.049  16.199  0.00  0.00    -0.221 NA
ATOM     62  CD2 HIS A   5      -1.868   7.331  16.508  0.00  0.00    +0.115 A 
ENDBRANCH  57  58
ENDBRANCH  34  57
ENDBRANCH  31  34
ENDBRANCH   1  30
BRANCH   1  63
ATOM     63  CB  LYS A   4       4.151   7.039  21.802  0.00  0.00    +0.029 C 
BRANCH  63  64
ATOM     64  CG  LYS A   4       3.337   7.989  22.706  0.00  0.00    +0.000 C 
BRANCH  64  65
ATOM     65  CD  LYS A   4       2.425   7.247  23.664  0.00  0.00    -0.024 C 
BRANCH  65  66
ATOM     66  CE  LYS A   4       1.715   8.249  24.573  0.00  0.00    -0.086 C 
BRANCH  66  67
ATOM     67  NZ  LYS A   4       0.627   9.016  23.859  0.00  0.00    +0.380 N 
ATOM     68  HZ1 LYS A   4       0.180   9.680  24.523  0.00  0.00    -0.089 HD
ATOM     69  HZ2 LYS A   4      -0.086   8.350  23.500  0.00  0.00    -0.089 HD
ATOM     70  HZ3 LYS A   4       1.041   9.544  23.064  0.00  0.00    -0.089 HD
ENDBRANCH  66  67
ENDBRANCH  65  66
ENDBRANCH  64  65
ENDBRANCH  63  64
ENDBRANCH   1  63
TORSDOF 30
REMARK  Name = ../refined-set-2016/4b7p/4b7p_pocket.pdb
REMARK  215 active torsions:
REMARK  status: ('A' for Active; 'I' for Inactive)
REMARK    1  A    between atoms: _1  and  _3
REMARK    2  A    between atoms: _3  and  _4
REMARK    3  A    between atoms: _3  and  _6
REMARK    4  A    between atoms: _6  and  _7
REMARK    5  A    between atoms: _10  and  _12
REMARK    6  A    between atoms: _12  and  _13
REMARK    7  A    between atoms: _12  and  _15
REMARK    8  A    between atoms: _15  and  _16
REMARK    9  A    between atoms: _22  and  _24
REMARK   10  A    between atoms: _24  and  _25
REMARK   11  A    between atoms: _24  and  _27
REMARK   12  A    between atoms: _27  and  _28
REMARK   13  A    between atoms: _31  and  _33
REMARK   14  A    between atoms: _33  and  _34
REMARK   15  A    between atoms: _33  and  _36
REMARK   16  A    between atoms: _36  and  _37
REMARK   17  A    between atoms: _37  and  _38
REMARK   18  A    between atoms: _41  and  _43
REMARK   19  A    between atoms: _43  and  _44
REMARK   20  A    between atoms: _43  and  _46
REMARK   21  A    between atoms: _46  and  _47
REMARK   22  A    between atoms: _50  and  _52
REMARK   23  A    between atoms: _52  and  _53
REMARK   24  A    between atoms: _52  and  _55
REMARK   25  A    between atoms: _55  and  _56
REMARK   26  A    between atoms: _59  and  _61
REMARK   27  A    between atoms: _61  and  _62
REMARK   28  A    between atoms: _61  and  _64
REMARK   29  A    between atoms: _64  and  _65
REMARK   30  A    between atoms: _67  and  _69
REMARK   31  A    between atoms: _69  and  _70
REMARK   32  A    between atoms: _69  and  _72
REMARK   33  A    between atoms: _72  and  _73
REMARK   34  A    between atoms: _78  and  _80
REMARK   35  A    between atoms: _80  and  _81
REMARK   36  A    between atoms: _80  and  _83
REMARK   37  A    between atoms: _83  and  _84
REMARK   38  A    between atoms: _86  and  _88
REMARK   39  A    between atoms: _88  and  _89
REMARK   40  A    between atoms: _88  and  _91
REMARK   41  A    between atoms: _91  and  _92
REMARK   42  A    between atoms: _94  and  _96
REMARK   43  A    between atoms: _96  and  _97
REMARK   44  A    between atoms: _96  and  _99
REMARK   45  A    between atoms: _99  and  _100
REMARK   46  A    between atoms: _103  and  _105
REMARK   47  A    between atoms: _105  and  _106
REMARK   48  A    between atoms: _109  and  _111
REMARK   49  A    between atoms: _111  and  _112
REMARK   50  A    between atoms: _111  and  _114
REMARK   51  A    between atoms: _114  and  _115
REMARK   52  A    between atoms: _118  and  _120
REMARK   53  A    between atoms: _120  and  _121
REMARK   54  A    between atoms: _120  and  _123
REMARK   55  A    between atoms: _123  and  _124
REMARK   56  A    between atoms: _127  and  _129
REMARK   57  A    between atoms: _129  and  _130
REMARK   58  A    between atoms: _129  and  _132
REMARK   59  A    between atoms: _132  and  _133
REMARK   60  A    between atoms: _133  and  _134
REMARK   61  A    between atoms: _134  and  _135
REMARK   62  A    between atoms: _135  and  _136
REMARK   63  A    between atoms: _140  and  _142
REMARK   64  A    between atoms: _142  and  _143
REMARK   65  A    between atoms: _142  and  _145
REMARK   66  A    between atoms: _145  and  _146
REMARK   67  A    between atoms: _149  and  _151
REMARK   68  A    between atoms: _151  and  _152
REMARK   69  A    between atoms: _151  and  _154
REMARK   70  A    between atoms: _154  and  _155
REMARK   71  A    between atoms: _155  and  _156
REMARK   72  A    between atoms: _159  and  _161
REMARK   73  A    between atoms: _161  and  _162
REMARK   74  A    between atoms: _161  and  _164
REMARK   75  A    between atoms: _164  and  _165
REMARK   76  A    between atoms: _168  and  _170
REMARK   77  A    between atoms: _170  and  _171
REMARK   78  A    between atoms: _170  and  _173
REMARK   79  A    between atoms: _176  and  _178
REMARK   80  A    between atoms: _178  and  _179
REMARK   81  A    between atoms: _178  and  _181
REMARK   82  A    between atoms: _181  and  _182
REMARK   83  A    between atoms: _185  and  _187
REMARK   84  A    between atoms: _187  and  _188
REMARK   85  A    between atoms: _187  and  _190
REMARK   86  A    between atoms: _190  and  _191
REMARK   87  A    between atoms: _194  and  _196
REMARK   88  A    between atoms: _196  and  _197
REMARK   89  A    between atoms: _199  and  _201
REMARK   90  A    between atoms: _201  and  _202
REMARK   91  A    between atoms: _201  and  _204
REMARK   92  A    between atoms: _204  and  _205
REMARK   93  A    between atoms: _208  and  _210
REMARK   94  A    between atoms: _210  and  _211
REMARK   95  A    between atoms: _213  and  _215
REMARK   96  A    between atoms: _215  and  _216
REMARK   97  A    between atoms: _215  and  _218
REMARK   98  A    between atoms: _218  and  _219
REMARK   99  A    between atoms: _219  and  _220
REMARK  100  A    between atoms: _222  and  _224
REMARK  101  A    between atoms: _224  and  _225
REMARK  102  A    between atoms: _224  and  _227
REMARK  103  A    between atoms: _227  and  _228
REMARK  104  A    between atoms: _231  and  _233
REMARK  105  A    between atoms: _233  and  _234
REMARK  106  A    between atoms: _237  and  _239
REMARK  107  A    between atoms: _239  and  _240
REMARK  108  A    between atoms: _239  and  _242
REMARK  109  A    between atoms: _242  and  _243
REMARK  110  A    between atoms: _246  and  _248
REMARK  111  A    between atoms: _248  and  _249
REMARK  112  A    between atoms: _248  and  _251
REMARK  113  A    between atoms: _251  and  _252
REMARK  114  A    between atoms: _255  and  _257
REMARK  115  A    between atoms: _257  and  _258
REMARK  116  A    between atoms: _257  and  _260
REMARK  117  A    between atoms: _260  and  _261
REMARK  118  A    between atoms: _266  and  _268
REMARK  119  A    between atoms: _268  and  _269
REMARK  120  A    between atoms: _268  and  _271
REMARK  121  A    between atoms: _271  and  _272
REMARK  122  A    between atoms: _277  and  _279
REMARK  123  A    between atoms: _279  and  _280
REMARK  124  A    between atoms: _279  and  _282
REMARK  125  A    between atoms: _282  and  _283
REMARK  126  A    between atoms: _286  and  _288
REMARK  127  A    between atoms: _288  and  _289
REMARK  128  A    between atoms: _291  and  _293
REMARK  129  A    between atoms: _293  and  _294
REMARK  130  A    between atoms: _293  and  _296
REMARK  131  A    between atoms: _296  and  _297
REMARK  132  A    between atoms: _300  and  _302
REMARK  133  A    between atoms: _302  and  _303
REMARK  134  A    between atoms: _302  and  _305
REMARK  135  A    between atoms: _305  and  _306
REMARK  136  A    between atoms: _306  and  _307
REMARK  137  A    between atoms: _307  and  _308
REMARK  138  A    between atoms: _308  and  _309
REMARK  139  A    between atoms: _313  and  _315
REMARK  140  A    between atoms: _315  and  _316
REMARK  141  A    between atoms: _318  and  _320
REMARK  142  A    between atoms: _320  and  _321
REMARK  143  A    between atoms: _320  and  _323
REMARK  144  A    between atoms: _323  and  _324
REMARK  145  A    between atoms: _330  and  _332
REMARK  146  A    between atoms: _332  and  _333
REMARK  147  A    between atoms: _335  and  _337
REMARK  148  A    between atoms: _337  and  _338
REMARK  149  A    between atoms: _337  and  _340
REMARK  150  A    between atoms: _343  and  _345
REMARK  151  A    between atoms: _345  and  _346
REMARK  152  A    between atoms: _348  and  _350
REMARK  153  A    between atoms: _350  and  _351
REMARK  154  A    between atoms: _350  and  _353
REMARK  155  A    between atoms: _353  and  _354
REMARK  156  A    between atoms: _360  and  _362
REMARK  157  A    between atoms: _362  and  _363
REMARK  158  A    between atoms: _362  and  _365
REMARK  159  A    between atoms: _365  and  _366
REMARK  160  A    between atoms: _371  and  _372
REMARK  161  A    between atoms: _374  and  _376
REMARK  162  A    between atoms: _376  and  _377
REMARK  163  A    between atoms: _376  and  _379
REMARK  164  A    between atoms: _379  and  _380
REMARK  165  A    between atoms: _382  and  _384
REMARK  166  A    between atoms: _384  and  _385
REMARK  167  A    between atoms: _388  and  _390
REMARK  168  A    between atoms: _390  and  _391
REMARK  169  A    between atoms: _390  and  _393
REMARK  170  A    between atoms: _396  and  _398
REMARK  171  A    between atoms: _398  and  _399
REMARK  172  A    between atoms: _398  and  _401
REMARK  173  A    between atoms: _404  and  _406
REMARK  174  A    between atoms: _406  and  _407
REMARK  175  A    between atoms: _406  and  _409
REMARK  176  A    between atoms: _409  and  _410
REMARK  177  A    between atoms: _413  and  _415
REMARK  178  A    between atoms: _415  and  _416
REMARK  179  A    between atoms: _415  and  _418
REMARK  180  A    between atoms: _418  and  _419
REMARK  181  A    between atoms: _422  and  _424
REMARK  182  A    between atoms: _424  and  _425
REMARK  183  A    between atoms: _424  and  _427
REMARK  184  A    between atoms: _427  and  _428
REMARK  185  A    between atoms: _428  and  _429
REMARK  186  A    between atoms: _429  and  _430
REMARK  187  A    between atoms: _430  and  _431
REMARK  188  A    between atoms: _435  and  _437
REMARK  189  A    between atoms: _437  and  _438
REMARK  190  A    between atoms: _437  and  _440
REMARK  191  A    between atoms: _440  and  _441
REMARK  192  A    between atoms: _446  and  _448
REMARK  193  A    between atoms: _448  and  _449
REMARK  194  A    between atoms: _448  and  _451
REMARK  195  A    between atoms: _451  and  _452
REMARK  196  A    between atoms: _457  and  _459
REMARK  197  A    between atoms: _459  and  _460
REMARK  198  A    between atoms: _459  and  _462
REMARK  199  A    between atoms: _462  and  _463
REMARK  200  A    between atoms: _466  and  _468
REMARK  201  A    between atoms: _468  and  _469
REMARK  202  A    between atoms: _471  and  _473
REMARK  203  A    between atoms: _473  and  _474
REMARK  204  A    between atoms: _473  and  _476
REMARK  205  A    between atoms: _476  and  _477
REMARK  206  A    between atoms: _480  and  _482
REMARK  207  A    between atoms: _482  and  _483
REMARK  208  A    between atoms: _482  and  _485
REMARK  209  A    between atoms: _485  and  _486
REMARK  210  A    between atoms: _486  and  _487
REMARK  211  A    between atoms: _487  and  _488
REMARK  212  A    between atoms: _488  and  _489
REMARK  213  A    between atoms: _493  and  _495
REMARK  214  A    between atoms: _495  and  _496
REMARK  215  A    between atoms: _495  and  _498
REMARK                            x       y       z     vdW  Elec       q    Type
REMARK                         _______ _______ _______ _____ _____    ______ ____
ROOT
ATOM      1  CA  LYS A   3      11.261   3.913  17.204  0.00  0.00    +0.149 C 
ENDROOT
BRANCH   1   3
ATOM      2  C   THR A   2       9.360   5.168  16.402  0.00  0.00    +0.243 C 
ATOM      3  N   LYS A   3       9.858   4.200  17.146  0.00  0.00    -0.297 N 
ATOM      4  H   LYS A   3       9.206   3.621  17.714  0.00  0.00    +0.150 HD
ATOM      5  O   THR A   2      10.036   5.976  15.741  0.00  0.00    -0.273 OA
BRANCH   2   6
ATOM      6  CA  THR A   2       7.853   5.284  16.441  0.00  0.00    +0.176 C 
BRANCH   6   9
ATOM      7  C   GLY A   1       6.526   7.146  17.266  0.00  0.00    +0.240 C 
ATOM      8  O   GLY A   1       5.862   6.409  18.009  0.00  0.00    -0.274 OA
ATOM      9  N   THR A   2       7.528   6.705  16.506  0.00  0.00    -0.295 N 
ATOM     10  H   THR A   2       8.087   7.384  15.951  0.00  0.00    +0.150 HD
BRANCH   7  11
ATOM     11  CA  GLY A   1       6.158   8.611  17.120  0.00  0.00    +0.169 C 
BRANCH  11  12
ATOM     12  N   GLY A   1       5.346   9.021  18.269  0.00  0.00    -0.236 NA
ATOM     13  H   GLY A   1       4.515   8.473  18.571  0.00  0.00    +0.142 HD
ENDBRANCH  11  12
ENDBRANCH   7  11
ENDBRANCH   6   9
BRANCH   6  14
ATOM     14  CB  THR A   2       7.244   4.649  15.176  0.00  0.00    +0.137 C 
ATOM     15  CG2 THR A   2       7.670   3.181  15.033  0.00  0.00    +0.034 C 
BRANCH  14  16
ATOM     16  OG1 THR A   2       5.826   4.734  15.296  0.00  0.00    -0.382 OA
ATOM     17  HG1 THR A   2       5.534   4.244  16.105  0.00  0.00    +0.210 HD
ENDBRANCH  14  16
ENDBRANCH   6  14
ENDBRANCH   2   6
ENDBRANCH   1   3
BRANCH   1  18
ATOM     18  C   LYS A   3      11.406   2.460  16.762  0.00  0.00    +0.241 C 
ATOM     19  O   LYS A   3      10.756   1.569  17.325  0.00  0.00    -0.273 OA
ATOM     20  N   VAL A   4      12.224   2.221  15.744  0.00  0.00    -0.298 N 
ATOM     21  H   VAL A   4      12.705   3.008  15.263  0.00  0.00    +0.150 HD
BRANCH  20  22
ATOM     22  CA  VAL A   4      12.442   0.858  15.309  0.00  0.00    +0.137 C 
BRANCH  22  23
ATOM     23  CB  VAL A   4      12.223   0.684  13.795  0.00  0.00    +0.026 C 
ATOM     24  CG2 VAL A   4      12.551  -0.786  13.405  0.00  0.00    +0.002 C 
ATOM     25  CG1 VAL A   4      10.822   1.181  13.358  0.00  0.00    +0.002 C 
ENDBRANCH  22  23
BRANCH  22  26
ATOM     26  C   VAL A   4      13.861   0.503  15.710  0.00  0.00    +0.227 C 
ATOM     27  O   VAL A   4      14.792   1.216  15.321  0.00  0.00    -0.286 OA
ENDBRANCH  22  26
ENDBRANCH  20  22
ENDBRANCH   1  18
BRANCH   1  28
ATOM     28  CB  LYS A   3      11.703   4.105  18.649  0.00  0.00    +0.029 C 
BRANCH  28  29
ATOM     29  CG  LYS A   3      13.046   3.492  18.952  0.00  0.00    +0.000 C 
BRANCH  29  30
ATOM     30  CD  LYS A   3      13.511   4.017  20.301  0.00  0.00    -0.024 C 
BRANCH  30  31
ATOM     31  CE  LYS A   3      12.529   3.761  21.439  0.00  0.00    -0.086 C 
BRANCH  31  32
ATOM     32  NZ  LYS A   3      13.318   4.008  22.691  0.00  0.00    +0.380 N 
ATOM     33  HZ1 LYS A   3      12.709   3.852  23.520  0.00  0.00    -0.089 HD
ATOM     34  HZ2 LYS A   3      14.126   3.354  22.725  0.00  0.00    -0.089 HD
ATOM     35  HZ3 LYS A   3      13.664   4.989  22.694  0.00  0.00    -0.089 HD
ENDBRANCH  31  32
ENDBRANCH  30  31
ENDBRANCH  29  30
ENDBRANCH  28  29
ENDBRANCH   1  28
TORSDOF 16
REMARK  Name = ../refined-set-2016/4b7p/4b7p_pocket.pdb
REMARK  215 active torsions:
REMARK  status: ('A' for Active; 'I' for Inactive)
REMARK    1  A    between atoms: _1  and  _3
REMARK    2  A    between atoms: _3  and  _4
REMARK    3  A    between atoms: _3  and  _6
REMARK    4  A    between atoms: _6  and  _7
REMARK    5  A    between atoms: _10  and  _12
REMARK    6  A    between atoms: _12  and  _13
REMARK    7  A    between atoms: _12  and  _15
REMARK    8  A    between atoms: _15  and  _16
REMARK    9  A    between atoms: _22  and  _24
REMARK   10  A    between atoms: _24  and  _25
REMARK   11  A    between atoms: _24  and  _27
REMARK   12  A    between atoms: _27  and  _28
REMARK   13  A    between atoms: _31  and  _33
REMARK   14  A    between atoms: _33  and  _34
REMARK   15  A    between atoms: _33  and  _36
REMARK   16  A    between atoms: _36  and  _37
REMARK   17  A    between atoms: _37  and  _38
REMARK   18  A    between atoms: _41  and  _43
REMARK   19  A    between atoms: _43  and  _44
REMARK   20  A    between atoms: _43  and  _46
REMARK   21  A    between atoms: _46  and  _47
REMARK   22  A    between atoms: _50  and  _52
REMARK   23  A    between atoms: _52  and  _53
REMARK   24  A    between atoms: _52  and  _55
REMARK   25  A    between atoms: _55  and  _56
REMARK   26  A    between atoms: _59  and  _61
REMARK   27  A    between atoms: _61  and  _62
REMARK   28  A    between atoms: _61  and  _64
REMARK   29  A    between atoms: _64  and  _65
REMARK   30  A    between atoms: _67  and  _69
REMARK   31  A    between atoms: _69  and  _70
REMARK   32  A    between atoms: _69  and  _72
REMARK   33  A    between atoms: _72  and  _73
REMARK   34  A    between atoms: _78  and  _80
REMARK   35  A    between atoms: _80  and  _81
REMARK   36  A    between atoms: _80  and  _83
REMARK   37  A    between atoms: _83  and  _84
REMARK   38  A    between atoms: _86  and  _88
REMARK   39  A    between atoms: _88  and  _89
REMARK   40  A    between atoms: _88  and  _91
REMARK   41  A    between atoms: _91  and  _92
REMARK   42  A    between atoms: _94  and  _96
REMARK   43  A    between atoms: _96  and  _97
REMARK   44  A    between atoms: _96  and  _99
REMARK   45  A    between atoms: _99  and  _100
REMARK   46  A    between atoms: _103  and  _105
REMARK   47  A    between atoms: _105  and  _106
REMARK   48  A    between atoms: _109  and  _111
REMARK   49  A    between atoms: _111  and  _112
REMARK   50  A    between atoms: _111  and  _114
REMARK   51  A    between atoms: _114  and  _115
REMARK   52  A    between atoms: _118  and  _120
REMARK   53  A    between atoms: _120  and  _121
REMARK   54  A    between atoms: _120  and  _123
REMARK   55  A    between atoms: _123  and  _124
REMARK   56  A    between atoms: _127  and  _129
REMARK   57  A    between atoms: _129  and  _130
REMARK   58  A    between atoms: _129  and  _132
REMARK   59  A    between atoms: _132  and  _133
REMARK   60  A    between atoms: _133  and  _134
REMARK   61  A    between atoms: _134  and  _135
REMARK   62  A    between atoms: _135  and  _136
REMARK   63  A    between atoms: _140  and  _142
REMARK   64  A    between atoms: _142  and  _143
REMARK   65  A    between atoms: _142  and  _145
REMARK   66  A    between atoms: _145  and  _146
REMARK   67  A    between atoms: _149  and  _151
REMARK   68  A    between atoms: _151  and  _152
REMARK   69  A    between atoms: _151  and  _154
REMARK   70  A    between atoms: _154  and  _155
REMARK   71  A    between atoms: _155  and  _156
REMARK   72  A    between atoms: _159  and  _161
REMARK   73  A    between atoms: _161  and  _162
REMARK   74  A    between atoms: _161  and  _164
REMARK   75  A    between atoms: _164  and  _165
REMARK   76  A    between atoms: _168  and  _170
REMARK   77  A    between atoms: _170  and  _171
REMARK   78  A    between atoms: _170  and  _173
REMARK   79  A    between atoms: _176  and  _178
REMARK   80  A    between atoms: _178  and  _179
REMARK   81  A    between atoms: _178  and  _181
REMARK   82  A    between atoms: _181  and  _182
REMARK   83  A    between atoms: _185  and  _187
REMARK   84  A    between atoms: _187  and  _188
REMARK   85  A    between atoms: _187  and  _190
REMARK   86  A    between atoms: _190  and  _191
REMARK   87  A    between atoms: _194  and  _196
REMARK   88  A    between atoms: _196  and  _197
REMARK   89  A    between atoms: _199  and  _201
REMARK   90  A    between atoms: _201  and  _202
REMARK   91  A    between atoms: _201  and  _204
REMARK   92  A    between atoms: _204  and  _205
REMARK   93  A    between atoms: _208  and  _210
REMARK   94  A    between atoms: _210  and  _211
REMARK   95  A    between atoms: _213  and  _215
REMARK   96  A    between atoms: _215  and  _216
REMARK   97  A    between atoms: _215  and  _218
REMARK   98  A    between atoms: _218  and  _219
REMARK   99  A    between atoms: _219  and  _220
REMARK  100  A    between atoms: _222  and  _224
REMARK  101  A    between atoms: _224  and  _225
REMARK  102  A    between atoms: _224  and  _227
REMARK  103  A    between atoms: _227  and  _228
REMARK  104  A    between atoms: _231  and  _233
REMARK  105  A    between atoms: _233  and  _234
REMARK  106  A    between atoms: _237  and  _239
REMARK  107  A    between atoms: _239  and  _240
REMARK  108  A    between atoms: _239  and  _242
REMARK  109  A    between atoms: _242  and  _243
REMARK  110  A    between atoms: _246  and  _248
REMARK  111  A    between atoms: _248  and  _249
REMARK  112  A    between atoms: _248  and  _251
REMARK  113  A    between atoms: _251  and  _252
REMARK  114  A    between atoms: _255  and  _257
REMARK  115  A    between atoms: _257  and  _258
REMARK  116  A    between atoms: _257  and  _260
REMARK  117  A    between atoms: _260  and  _261
REMARK  118  A    between atoms: _266  and  _268
REMARK  119  A    between atoms: _268  and  _269
REMARK  120  A    between atoms: _268  and  _271
REMARK  121  A    between atoms: _271  and  _272
REMARK  122  A    between atoms: _277  and  _279
REMARK  123  A    between atoms: _279  and  _280
REMARK  124  A    between atoms: _279  and  _282
REMARK  125  A    between atoms: _282  and  _283
REMARK  126  A    between atoms: _286  and  _288
REMARK  127  A    between atoms: _288  and  _289
REMARK  128  A    between atoms: _291  and  _293
REMARK  129  A    between atoms: _293  and  _294
REMARK  130  A    between atoms: _293  and  _296
REMARK  131  A    between atoms: _296  and  _297
REMARK  132  A    between atoms: _300  and  _302
REMARK  133  A    between atoms: _302  and  _303
REMARK  134  A    between atoms: _302  and  _305
REMARK  135  A    between atoms: _305  and  _306
REMARK  136  A    between atoms: _306  and  _307
REMARK  137  A    between atoms: _307  and  _308
REMARK  138  A    between atoms: _308  and  _309
REMARK  139  A    between atoms: _313  and  _315
REMARK  140  A    between atoms: _315  and  _316
REMARK  141  A    between atoms: _318  and  _320
REMARK  142  A    between atoms: _320  and  _321
REMARK  143  A    between atoms: _320  and  _323
REMARK  144  A    between atoms: _323  and  _324
REMARK  145  A    between atoms: _330  and  _332
REMARK  146  A    between atoms: _332  and  _333
REMARK  147  A    between atoms: _335  and  _337
REMARK  148  A    between atoms: _337  and  _338
REMARK  149  A    between atoms: _337  and  _340
REMARK  150  A    between atoms: _343  and  _345
REMARK  151  A    between atoms: _345  and  _346
REMARK  152  A    between atoms: _348  and  _350
REMARK  153  A    between atoms: _350  and  _351
REMARK  154  A    between atoms: _350  and  _353
REMARK  155  A    between atoms: _353  and  _354
REMARK  156  A    between atoms: _360  and  _362
REMARK  157  A    between atoms: _362  and  _363
REMARK  158  A    between atoms: _362  and  _365
REMARK  159  A    between atoms: _365  and  _366
REMARK  160  A    between atoms: _371  and  _372
REMARK  161  A    between atoms: _374  and  _376
REMARK  162  A    between atoms: _376  and  _377
REMARK  163  A    between atoms: _376  and  _379
REMARK  164  A    between atoms: _379  and  _380
REMARK  165  A    between atoms: _382  and  _384
REMARK  166  A    between atoms: _384  and  _385
REMARK  167  A    between atoms: _388  and  _390
REMARK  168  A    between atoms: _390  and  _391
REMARK  169  A    between atoms: _390  and  _393
REMARK  170  A    between atoms: _396  and  _398
REMARK  171  A    between atoms: _398  and  _399
REMARK  172  A    between atoms: _398  and  _401
REMARK  173  A    between atoms: _404  and  _406
REMARK  174  A    between atoms: _406  and  _407
REMARK  175  A    between atoms: _406  and  _409
REMARK  176  A    between atoms: _409  and  _410
REMARK  177  A    between atoms: _413  and  _415
REMARK  178  A    between atoms: _415  and  _416
REMARK  179  A    between atoms: _415  and  _418
REMARK  180  A    between atoms: _418  and  _419
REMARK  181  A    between atoms: _422  and  _424
REMARK  182  A    between atoms: _424  and  _425
REMARK  183  A    between atoms: _424  and  _427
REMARK  184  A    between atoms: _427  and  _428
REMARK  185  A    between atoms: _428  and  _429
REMARK  186  A    between atoms: _429  and  _430
REMARK  187  A    between atoms: _430  and  _431
REMARK  188  A    between atoms: _435  and  _437
REMARK  189  A    between atoms: _437  and  _438
REMARK  190  A    between atoms: _437  and  _440
REMARK  191  A    between atoms: _440  and  _441
REMARK  192  A    between atoms: _446  and  _448
REMARK  193  A    between atoms: _448  and  _449
REMARK  194  A    between atoms: _448  and  _451
REMARK  195  A    between atoms: _451  and  _452
REMARK  196  A    between atoms: _457  and  _459
REMARK  197  A    between atoms: _459  and  _460
REMARK  198  A    between atoms: _459  and  _462
REMARK  199  A    between atoms: _462  and  _463
REMARK  200  A    between atoms: _466  and  _468
REMARK  201  A    between atoms: _468  and  _469
REMARK  202  A    between atoms: _471  and  _473
REMARK  203  A    between atoms: _473  and  _474
REMARK  204  A    between atoms: _473  and  _476
REMARK  205  A    between atoms: _476  and  _477
REMARK  206  A    between atoms: _480  and  _482
REMARK  207  A    between atoms: _482  and  _483
REMARK  208  A    between atoms: _482  and  _485
REMARK  209  A    between atoms: _485  and  _486
REMARK  210  A    between atoms: _486  and  _487
REMARK  211  A    between atoms: _487  and  _488
REMARK  212  A    between atoms: _488  and  _489
REMARK  213  A    between atoms: _493  and  _495
REMARK  214  A    between atoms: _495  and  _496
REMARK  215  A    between atoms: _495  and  _498
REMARK                            x       y       z     vdW  Elec       q    Type
REMARK                         _______ _______ _______ _____ _____    ______ ____
ROOT
ATOM      1  O   HOH     1      13.789  -2.190   6.849  0.00  0.00    +0.000 OA
ENDROOT
TORSDOF 0
REMARK  Name = ../refined-set-2016/4b7p/4b7p_pocket.pdb
REMARK  215 active torsions:
REMARK  status: ('A' for Active; 'I' for Inactive)
REMARK    1  A    between atoms: _1  and  _3
REMARK    2  A    between atoms: _3  and  _4
REMARK    3  A    between atoms: _3  and  _6
REMARK    4  A    between atoms: _6  and  _7
REMARK    5  A    between atoms: _10  and  _12
REMARK    6  A    between atoms: _12  and  _13
REMARK    7  A    between atoms: _12  and  _15
REMARK    8  A    between atoms: _15  and  _16
REMARK    9  A    between atoms: _22  and  _24
REMARK   10  A    between atoms: _24  and  _25
REMARK   11  A    between atoms: _24  and  _27
REMARK   12  A    between atoms: _27  and  _28
REMARK   13  A    between atoms: _31  and  _33
REMARK   14  A    between atoms: _33  and  _34
REMARK   15  A    between atoms: _33  and  _36
REMARK   16  A    between atoms: _36  and  _37
REMARK   17  A    between atoms: _37  and  _38
REMARK   18  A    between atoms: _41  and  _43
REMARK   19  A    between atoms: _43  and  _44
REMARK   20  A    between atoms: _43  and  _46
REMARK   21  A    between atoms: _46  and  _47
REMARK   22  A    between atoms: _50  and  _52
REMARK   23  A    between atoms: _52  and  _53
REMARK   24  A    between atoms: _52  and  _55
REMARK   25  A    between atoms: _55  and  _56
REMARK   26  A    between atoms: _59  and  _61
REMARK   27  A    between atoms: _61  and  _62
REMARK   28  A    between atoms: _61  and  _64
REMARK   29  A    between atoms: _64  and  _65
REMARK   30  A    between atoms: _67  and  _69
REMARK   31  A    between atoms: _69  and  _70
REMARK   32  A    between atoms: _69  and  _72
REMARK   33  A    between atoms: _72  and  _73
REMARK   34  A    between atoms: _78  and  _80
REMARK   35  A    between atoms: _80  and  _81
REMARK   36  A    between atoms: _80  and  _83
REMARK   37  A    between atoms: _83  and  _84
REMARK   38  A    between atoms: _86  and  _88
REMARK   39  A    between atoms: _88  and  _89
REMARK   40  A    between atoms: _88  and  _91
REMARK   41  A    between atoms: _91  and  _92
REMARK   42  A    between atoms: _94  and  _96
REMARK   43  A    between atoms: _96  and  _97
REMARK   44  A    between atoms: _96  and  _99
REMARK   45  A    between atoms: _99  and  _100
REMARK   46  A    between atoms: _103  and  _105
REMARK   47  A    between atoms: _105  and  _106
REMARK   48  A    between atoms: _109  and  _111
REMARK   49  A    between atoms: _111  and  _112
REMARK   50  A    between atoms: _111  and  _114
REMARK   51  A    between atoms: _114  and  _115
REMARK   52  A    between atoms: _118  and  _120
REMARK   53  A    between atoms: _120  and  _121
REMARK   54  A    between atoms: _120  and  _123
REMARK   55  A    between atoms: _123  and  _124
REMARK   56  A    between atoms: _127  and  _129
REMARK   57  A    between atoms: _129  and  _130
REMARK   58  A    between atoms: _129  and  _132
REMARK   59  A    between atoms: _132  and  _133
REMARK   60  A    between atoms: _133  and  _134
REMARK   61  A    between atoms: _134  and  _135
REMARK   62  A    between atoms: _135  and  _136
REMARK   63  A    between atoms: _140  and  _142
REMARK   64  A    between atoms: _142  and  _143
REMARK   65  A    between atoms: _142  and  _145
REMARK   66  A    between atoms: _145  and  _146
REMARK   67  A    between atoms: _149  and  _151
REMARK   68  A    between atoms: _151  and  _152
REMARK   69  A    between atoms: _151  and  _154
REMARK   70  A    between atoms: _154  and  _155
REMARK   71  A    between atoms: _155  and  _156
REMARK   72  A    between atoms: _159  and  _161
REMARK   73  A    between atoms: _161  and  _162
REMARK   74  A    between atoms: _161  and  _164
REMARK   75  A    between atoms: _164  and  _165
REMARK   76  A    between atoms: _168  and  _170
REMARK   77  A    between atoms: _170  and  _171
REMARK   78  A    between atoms: _170  and  _173
REMARK   79  A    between atoms: _176  and  _178
REMARK   80  A    between atoms: _178  and  _179
REMARK   81  A    between atoms: _178  and  _181
REMARK   82  A    between atoms: _181  and  _182
REMARK   83  A    between atoms: _185  and  _187
REMARK   84  A    between atoms: _187  and  _188
REMARK   85  A    between atoms: _187  and  _190
REMARK   86  A    between atoms: _190  and  _191
REMARK   87  A    between atoms: _194  and  _196
REMARK   88  A    between atoms: _196  and  _197
REMARK   89  A    between atoms: _199  and  _201
REMARK   90  A    between atoms: _201  and  _202
REMARK   91  A    between atoms: _201  and  _204
REMARK   92  A    between atoms: _204  and  _205
REMARK   93  A    between atoms: _208  and  _210
REMARK   94  A    between atoms: _210  and  _211
REMARK   95  A    between atoms: _213  and  _215
REMARK   96  A    between atoms: _215  and  _216
REMARK   97  A    between atoms: _215  and  _218
REMARK   98  A    between atoms: _218  and  _219
REMARK   99  A    between atoms: _219  and  _220
REMARK  100  A    between atoms: _222  and  _224
REMARK  101  A    between atoms: _224  and  _225
REMARK  102  A    between atoms: _224  and  _227
REMARK  103  A    between atoms: _227  and  _228
REMARK  104  A    between atoms: _231  and  _233
REMARK  105  A    between atoms: _233  and  _234
REMARK  106  A    between atoms: _237  and  _239
REMARK  107  A    between atoms: _239  and  _240
REMARK  108  A    between atoms: _239  and  _242
REMARK  109  A    between atoms: _242  and  _243
REMARK  110  A    between atoms: _246  and  _248
REMARK  111  A    between atoms: _248  and  _249
REMARK  112  A    between atoms: _248  and  _251
REMARK  113  A    between atoms: _251  and  _252
REMARK  114  A    between atoms: _255  and  _257
REMARK  115  A    between atoms: _257  and  _258
REMARK  116  A    between atoms: _257  and  _260
REMARK  117  A    between atoms: _260  and  _261
REMARK  118  A    between atoms: _266  and  _268
REMARK  119  A    between atoms: _268  and  _269
REMARK  120  A    between atoms: _268  and  _271
REMARK  121  A    between atoms: _271  and  _272
REMARK  122  A    between atoms: _277  and  _279
REMARK  123  A    between atoms: _279  and  _280
REMARK  124  A    between atoms: _279  and  _282
REMARK  125  A    between atoms: _282  and  _283
REMARK  126  A    between atoms: _286  and  _288
REMARK  127  A    between atoms: _288  and  _289
REMARK  128  A    between atoms: _291  and  _293
REMARK  129  A    between atoms: _293  and  _294
REMARK  130  A    between atoms: _293  and  _296
REMARK  131  A    between atoms: _296  and  _297
REMARK  132  A    between atoms: _300  and  _302
REMARK  133  A    between atoms: _302  and  _303
REMARK  134  A    between atoms: _302  and  _305
REMARK  135  A    between atoms: _305  and  _306
REMARK  136  A    between atoms: _306  and  _307
REMARK  137  A    between atoms: _307  and  _308
REMARK  138  A    between atoms: _308  and  _309
REMARK  139  A    between atoms: _313  and  _315
REMARK  140  A    between atoms: _315  and  _316
REMARK  141  A    between atoms: _318  and  _320
REMARK  142  A    between atoms: _320  and  _321
REMARK  143  A    between atoms: _320  and  _323
REMARK  144  A    between atoms: _323  and  _324
REMARK  145  A    between atoms: _330  and  _332
REMARK  146  A    between atoms: _332  and  _333
REMARK  147  A    between atoms: _335  and  _337
REMARK  148  A    between atoms: _337  and  _338
REMARK  149  A    between atoms: _337  and  _340
REMARK  150  A    between atoms: _343  and  _345
REMARK  151  A    between atoms: _345  and  _346
REMARK  152  A    between atoms: _348  and  _350
REMARK  153  A    between atoms: _350  and  _351
REMARK  154  A    between atoms: _350  and  _353
REMARK  155  A    between atoms: _353  and  _354
REMARK  156  A    between atoms: _360  and  _362
REMARK  157  A    between atoms: _362  and  _363
REMARK  158  A    between atoms: _362  and  _365
REMARK  159  A    between atoms: _365  and  _366
REMARK  160  A    between atoms: _371  and  _372
REMARK  161  A    between atoms: _374  and  _376
REMARK  162  A    between atoms: _376  and  _377
REMARK  163  A    between atoms: _376  and  _379
REMARK  164  A    between atoms: _379  and  _380
REMARK  165  A    between atoms: _382  and  _384
REMARK  166  A    between atoms: _384  and  _385
REMARK  167  A    between atoms: _388  and  _390
REMARK  168  A    between atoms: _390  and  _391
REMARK  169  A    between atoms: _390  and  _393
REMARK  170  A    between atoms: _396  and  _398
REMARK  171  A    between atoms: _398  and  _399
REMARK  172  A    between atoms: _398  and  _401
REMARK  173  A    between atoms: _404  and  _406
REMARK  174  A    between atoms: _406  and  _407
REMARK  175  A    between atoms: _406  and  _409
REMARK  176  A    between atoms: _409  and  _410
REMARK  177  A    between atoms: _413  and  _415
REMARK  178  A    between atoms: _415  and  _416
REMARK  179  A    between atoms: _415  and  _418
REMARK  180  A    between atoms: _418  and  _419
REMARK  181  A    between atoms: _422  and  _424
REMARK  182  A    between atoms: _424  and  _425
REMARK  183  A    between atoms: _424  and  _427
REMARK  184  A    between atoms: _427  and  _428
REMARK  185  A    between atoms: _428  and  _429
REMARK  186  A    between atoms: _429  and  _430
REMARK  187  A    between atoms: _430  and  _431
REMARK  188  A    between atoms: _435  and  _437
REMARK  189  A    between atoms: _437  and  _438
REMARK  190  A    between atoms: _437  and  _440
REMARK  191  A    between atoms: _440  and  _441
REMARK  192  A    between atoms: _446  and  _448
REMARK  193  A    between atoms: _448  and  _449
REMARK  194  A    between atoms: _448  and  _451
REMARK  195  A    between atoms: _451  and  _452
REMARK  196  A    between atoms: _457  and  _459
REMARK  197  A    between atoms: _459  and  _460
REMARK  198  A    between atoms: _459  and  _462
REMARK  199  A    between atoms: _462  and  _463
REMARK  200  A    between atoms: _466  and  _468
REMARK  201  A    between atoms: _468  and  _469
REMARK  202  A    between atoms: _471  and  _473
REMARK  203  A    between atoms: _473  and  _474
REMARK  204  A    between atoms: _473  and  _476
REMARK  205  A    between atoms: _476  and  _477
REMARK  206  A    between atoms: _480  and  _482
REMARK  207  A    between atoms: _482  and  _483
REMARK  208  A    between atoms: _482  and  _485
REMARK  209  A    between atoms: _485  and  _486
REMARK  210  A    between atoms: _486  and  _487
REMARK  211  A    between atoms: _487  and  _488
REMARK  212  A    between atoms: _488  and  _489
REMARK  213  A    between atoms: _493  and  _495
REMARK  214  A    between atoms: _495  and  _496
REMARK  215  A    between atoms: _495  and  _498
REMARK                            x       y       z     vdW  Elec       q    Type
REMARK                         _______ _______ _______ _____ _____    ______ ____
ROOT
ATOM      1  O   HOH     1       8.273  -0.049   3.466  0.00  0.00    +0.000 OA
ENDROOT
TORSDOF 0
REMARK  Name = ../refined-set-2016/4b7p/4b7p_pocket.pdb
REMARK  215 active torsions:
REMARK  status: ('A' for Active; 'I' for Inactive)
REMARK    1  A    between atoms: _1  and  _3
REMARK    2  A    between atoms: _3  and  _4
REMARK    3  A    between atoms: _3  and  _6
REMARK    4  A    between atoms: _6  and  _7
REMARK    5  A    between atoms: _10  and  _12
REMARK    6  A    between atoms: _12  and  _13
REMARK    7  A    between atoms: _12  and  _15
REMARK    8  A    between atoms: _15  and  _16
REMARK    9  A    between atoms: _22  and  _24
REMARK   10  A    between atoms: _24  and  _25
REMARK   11  A    between atoms: _24  and  _27
REMARK   12  A    between atoms: _27  and  _28
REMARK   13  A    between atoms: _31  and  _33
REMARK   14  A    between atoms: _33  and  _34
REMARK   15  A    between atoms: _33  and  _36
REMARK   16  A    between atoms: _36  and  _37
REMARK   17  A    between atoms: _37  and  _38
REMARK   18  A    between atoms: _41  and  _43
REMARK   19  A    between atoms: _43  and  _44
REMARK   20  A    between atoms: _43  and  _46
REMARK   21  A    between atoms: _46  and  _47
REMARK   22  A    between atoms: _50  and  _52
REMARK   23  A    between atoms: _52  and  _53
REMARK   24  A    between atoms: _52  and  _55
REMARK   25  A    between atoms: _55  and  _56
REMARK   26  A    between atoms: _59  and  _61
REMARK   27  A    between atoms: _61  and  _62
REMARK   28  A    between atoms: _61  and  _64
REMARK   29  A    between atoms: _64  and  _65
REMARK   30  A    between atoms: _67  and  _69
REMARK   31  A    between atoms: _69  and  _70
REMARK   32  A    between atoms: _69  and  _72
REMARK   33  A    between atoms: _72  and  _73
REMARK   34  A    between atoms: _78  and  _80
REMARK   35  A    between atoms: _80  and  _81
REMARK   36  A    between atoms: _80  and  _83
REMARK   37  A    between atoms: _83  and  _84
REMARK   38  A    between atoms: _86  and  _88
REMARK   39  A    between atoms: _88  and  _89
REMARK   40  A    between atoms: _88  and  _91
REMARK   41  A    between atoms: _91  and  _92
REMARK   42  A    between atoms: _94  and  _96
REMARK   43  A    between atoms: _96  and  _97
REMARK   44  A    between atoms: _96  and  _99
REMARK   45  A    between atoms: _99  and  _100
REMARK   46  A    between atoms: _103  and  _105
REMARK   47  A    between atoms: _105  and  _106
REMARK   48  A    between atoms: _109  and  _111
REMARK   49  A    between atoms: _111  and  _112
REMARK   50  A    between atoms: _111  and  _114
REMARK   51  A    between atoms: _114  and  _115
REMARK   52  A    between atoms: _118  and  _120
REMARK   53  A    between atoms: _120  and  _121
REMARK   54  A    between atoms: _120  and  _123
REMARK   55  A    between atoms: _123  and  _124
REMARK   56  A    between atoms: _127  and  _129
REMARK   57  A    between atoms: _129  and  _130
REMARK   58  A    between atoms: _129  and  _132
REMARK   59  A    between atoms: _132  and  _133
REMARK   60  A    between atoms: _133  and  _134
REMARK   61  A    between atoms: _134  and  _135
REMARK   62  A    between atoms: _135  and  _136
REMARK   63  A    between atoms: _140  and  _142
REMARK   64  A    between atoms: _142  and  _143
REMARK   65  A    between atoms: _142  and  _145
REMARK   66  A    between atoms: _145  and  _146
REMARK   67  A    between atoms: _149  and  _151
REMARK   68  A    between atoms: _151  and  _152
REMARK   69  A    between atoms: _151  and  _154
REMARK   70  A    between atoms: _154  and  _155
REMARK   71  A    between atoms: _155  and  _156
REMARK   72  A    between atoms: _159  and  _161
REMARK   73  A    between atoms: _161  and  _162
REMARK   74  A    between atoms: _161  and  _164
REMARK   75  A    between atoms: _164  and  _165
REMARK   76  A    between atoms: _168  and  _170
REMARK   77  A    between atoms: _170  and  _171
REMARK   78  A    between atoms: _170  and  _173
REMARK   79  A    between atoms: _176  and  _178
REMARK   80  A    between atoms: _178  and  _179
REMARK   81  A    between atoms: _178  and  _181
REMARK   82  A    between atoms: _181  and  _182
REMARK   83  A    between atoms: _185  and  _187
REMARK   84  A    between atoms: _187  and  _188
REMARK   85  A    between atoms: _187  and  _190
REMARK   86  A    between atoms: _190  and  _191
REMARK   87  A    between atoms: _194  and  _196
REMARK   88  A    between atoms: _196  and  _197
REMARK   89  A    between atoms: _199  and  _201
REMARK   90  A    between atoms: _201  and  _202
REMARK   91  A    between atoms: _201  and  _204
REMARK   92  A    between atoms: _204  and  _205
REMARK   93  A    between atoms: _208  and  _210
REMARK   94  A    between atoms: _210  and  _211
REMARK   95  A    between atoms: _213  and  _215
REMARK   96  A    between atoms: _215  and  _216
REMARK   97  A    between atoms: _215  and  _218
REMARK   98  A    between atoms: _218  and  _219
REMARK   99  A    between atoms: _219  and  _220
REMARK  100  A    between atoms: _222  and  _224
REMARK  101  A    between atoms: _224  and  _225
REMARK  102  A    between atoms: _224  and  _227
REMARK  103  A    between atoms: _227  and  _228
REMARK  104  A    between atoms: _231  and  _233
REMARK  105  A    between atoms: _233  and  _234
REMARK  106  A    between atoms: _237  and  _239
REMARK  107  A    between atoms: _239  and  _240
REMARK  108  A    between atoms: _239  and  _242
REMARK  109  A    between atoms: _242  and  _243
REMARK  110  A    between atoms: _246  and  _248
REMARK  111  A    between atoms: _248  and  _249
REMARK  112  A    between atoms: _248  and  _251
REMARK  113  A    between atoms: _251  and  _252
REMARK  114  A    between atoms: _255  and  _257
REMARK  115  A    between atoms: _257  and  _258
REMARK  116  A    between atoms: _257  and  _260
REMARK  117  A    between atoms: _260  and  _261
REMARK  118  A    between atoms: _266  and  _268
REMARK  119  A    between atoms: _268  and  _269
REMARK  120  A    between atoms: _268  and  _271
REMARK  121  A    between atoms: _271  and  _272
REMARK  122  A    between atoms: _277  and  _279
REMARK  123  A    between atoms: _279  and  _280
REMARK  124  A    between atoms: _279  and  _282
REMARK  125  A    between atoms: _282  and  _283
REMARK  126  A    between atoms: _286  and  _288
REMARK  127  A    between atoms: _288  and  _289
REMARK  128  A    between atoms: _291  and  _293
REMARK  129  A    between atoms: _293  and  _294
REMARK  130  A    between atoms: _293  and  _296
REMARK  131  A    between atoms: _296  and  _297
REMARK  132  A    between atoms: _300  and  _302
REMARK  133  A    between atoms: _302  and  _303
REMARK  134  A    between atoms: _302  and  _305
REMARK  135  A    between atoms: _305  and  _306
REMARK  136  A    between atoms: _306  and  _307
REMARK  137  A    between atoms: _307  and  _308
REMARK  138  A    between atoms: _308  and  _309
REMARK  139  A    between atoms: _313  and  _315
REMARK  140  A    between atoms: _315  and  _316
REMARK  141  A    between atoms: _318  and  _320
REMARK  142  A    between atoms: _320  and  _321
REMARK  143  A    between atoms: _320  and  _323
REMARK  144  A    between atoms: _323  and  _324
REMARK  145  A    between atoms: _330  and  _332
REMARK  146  A    between atoms: _332  and  _333
REMARK  147  A    between atoms: _335  and  _337
REMARK  148  A    between atoms: _337  and  _338
REMARK  149  A    between atoms: _337  and  _340
REMARK  150  A    between atoms: _343  and  _345
REMARK  151  A    between atoms: _345  and  _346
REMARK  152  A    between atoms: _348  and  _350
REMARK  153  A    between atoms: _350  and  _351
REMARK  154  A    between atoms: _350  and  _353
REMARK  155  A    between atoms: _353  and  _354
REMARK  156  A    between atoms: _360  and  _362
REMARK  157  A    between atoms: _362  and  _363
REMARK  158  A    between atoms: _362  and  _365
REMARK  159  A    between atoms: _365  and  _366
REMARK  160  A    between atoms: _371  and  _372
REMARK  161  A    between atoms: _374  and  _376
REMARK  162  A    between atoms: _376  and  _377
REMARK  163  A    between atoms: _376  and  _379
REMARK  164  A    between atoms: _379  and  _380
REMARK  165  A    between atoms: _382  and  _384
REMARK  166  A    between atoms: _384  and  _385
REMARK  167  A    between atoms: _388  and  _390
REMARK  168  A    between atoms: _390  and  _391
REMARK  169  A    between atoms: _390  and  _393
REMARK  170  A    between atoms: _396  and  _398
REMARK  171  A    between atoms: _398  and  _399
REMARK  172  A    between atoms: _398  and  _401
REMARK  173  A    between atoms: _404  and  _406
REMARK  174  A    between atoms: _406  and  _407
REMARK  175  A    between atoms: _406  and  _409
REMARK  176  A    between atoms: _409  and  _410
REMARK  177  A    between atoms: _413  and  _415
REMARK  178  A    between atoms: _415  and  _416
REMARK  179  A    between atoms: _415  and  _418
REMARK  180  A    between atoms: _418  and  _419
REMARK  181  A    between atoms: _422  and  _424
REMARK  182  A    between atoms: _424  and  _425
REMARK  183  A    between atoms: _424  and  _427
REMARK  184  A    between atoms: _427  and  _428
REMARK  185  A    between atoms: _428  and  _429
REMARK  186  A    between atoms: _429  and  _430
REMARK  187  A    between atoms: _430  and  _431
REMARK  188  A    between atoms: _435  and  _437
REMARK  189  A    between atoms: _437  and  _438
REMARK  190  A    between atoms: _437  and  _440
REMARK  191  A    between atoms: _440  and  _441
REMARK  192  A    between atoms: _446  and  _448
REMARK  193  A    between atoms: _448  and  _449
REMARK  194  A    between atoms: _448  and  _451
REMARK  195  A    between atoms: _451  and  _452
REMARK  196  A    between atoms: _457  and  _459
REMARK  197  A    between atoms: _459  and  _460
REMARK  198  A    between atoms: _459  and  _462
REMARK  199  A    between atoms: _462  and  _463
REMARK  200  A    between atoms: _466  and  _468
REMARK  201  A    between atoms: _468  and  _469
REMARK  202  A    between atoms: _471  and  _473
REMARK  203  A    between atoms: _473  and  _474
REMARK  204  A    between atoms: _473  and  _476
REMARK  205  A    between atoms: _476  and  _477
REMARK  206  A    between atoms: _480  and  _482
REMARK  207  A    between atoms: _482  and  _483
REMARK  208  A    between atoms: _482  and  _485
REMARK  209  A    between atoms: _485  and  _486
REMARK  210  A    between atoms: _486  and  _487
REMARK  211  A    between atoms: _487  and  _488
REMARK  212  A    between atoms: _488  and  _489
REMARK  213  A    between atoms: _493  and  _495
REMARK  214  A    between atoms: _495  and  _496
REMARK  215  A    between atoms: _495  and  _498
REMARK                            x       y       z     vdW  Elec       q    Type
REMARK                         _______ _______ _______ _____ _____    ______ ____
ROOT
ATOM      1  O   HOH     1      11.322   3.614  10.582  0.00  0.00    +0.000 OA
ENDROOT
TORSDOF 0
REMARK  Name = ../refined-set-2016/4b7p/4b7p_pocket.pdb
REMARK  215 active torsions:
REMARK  status: ('A' for Active; 'I' for Inactive)
REMARK    1  A    between atoms: _1  and  _3
REMARK    2  A    between atoms: _3  and  _4
REMARK    3  A    between atoms: _3  and  _6
REMARK    4  A    between atoms: _6  and  _7
REMARK    5  A    between atoms: _10  and  _12
REMARK    6  A    between atoms: _12  and  _13
REMARK    7  A    between atoms: _12  and  _15
REMARK    8  A    between atoms: _15  and  _16
REMARK    9  A    between atoms: _22  and  _24
REMARK   10  A    between atoms: _24  and  _25
REMARK   11  A    between atoms: _24  and  _27
REMARK   12  A    between atoms: _27  and  _28
REMARK   13  A    between atoms: _31  and  _33
REMARK   14  A    between atoms: _33  and  _34
REMARK   15  A    between atoms: _33  and  _36
REMARK   16  A    between atoms: _36  and  _37
REMARK   17  A    between atoms: _37  and  _38
REMARK   18  A    between atoms: _41  and  _43
REMARK   19  A    between atoms: _43  and  _44
REMARK   20  A    between atoms: _43  and  _46
REMARK   21  A    between atoms: _46  and  _47
REMARK   22  A    between atoms: _50  and  _52
REMARK   23  A    between atoms: _52  and  _53
REMARK   24  A    between atoms: _52  and  _55
REMARK   25  A    between atoms: _55  and  _56
REMARK   26  A    between atoms: _59  and  _61
REMARK   27  A    between atoms: _61  and  _62
REMARK   28  A    between atoms: _61  and  _64
REMARK   29  A    between atoms: _64  and  _65
REMARK   30  A    between atoms: _67  and  _69
REMARK   31  A    between atoms: _69  and  _70
REMARK   32  A    between atoms: _69  and  _72
REMARK   33  A    between atoms: _72  and  _73
REMARK   34  A    between atoms: _78  and  _80
REMARK   35  A    between atoms: _80  and  _81
REMARK   36  A    between atoms: _80  and  _83
REMARK   37  A    between atoms: _83  and  _84
REMARK   38  A    between atoms: _86  and  _88
REMARK   39  A    between atoms: _88  and  _89
REMARK   40  A    between atoms: _88  and  _91
REMARK   41  A    between atoms: _91  and  _92
REMARK   42  A    between atoms: _94  and  _96
REMARK   43  A    between atoms: _96  and  _97
REMARK   44  A    between atoms: _96  and  _99
REMARK   45  A    between atoms: _99  and  _100
REMARK   46  A    between atoms: _103  and  _105
REMARK   47  A    between atoms: _105  and  _106
REMARK   48  A    between atoms: _109  and  _111
REMARK   49  A    between atoms: _111  and  _112
REMARK   50  A    between atoms: _111  and  _114
REMARK   51  A    between atoms: _114  and  _115
REMARK   52  A    between atoms: _118  and  _120
REMARK   53  A    between atoms: _120  and  _121
REMARK   54  A    between atoms: _120  and  _123
REMARK   55  A    between atoms: _123  and  _124
REMARK   56  A    between atoms: _127  and  _129
REMARK   57  A    between atoms: _129  and  _130
REMARK   58  A    between atoms: _129  and  _132
REMARK   59  A    between atoms: _132  and  _133
REMARK   60  A    between atoms: _133  and  _134
REMARK   61  A    between atoms: _134  and  _135
REMARK   62  A    between atoms: _135  and  _136
REMARK   63  A    between atoms: _140  and  _142
REMARK   64  A    between atoms: _142  and  _143
REMARK   65  A    between atoms: _142  and  _145
REMARK   66  A    between atoms: _145  and  _146
REMARK   67  A    between atoms: _149  and  _151
REMARK   68  A    between atoms: _151  and  _152
REMARK   69  A    between atoms: _151  and  _154
REMARK   70  A    between atoms: _154  and  _155
REMARK   71  A    between atoms: _155  and  _156
REMARK   72  A    between atoms: _159  and  _161
REMARK   73  A    between atoms: _161  and  _162
REMARK   74  A    between atoms: _161  and  _164
REMARK   75  A    between atoms: _164  and  _165
REMARK   76  A    between atoms: _168  and  _170
REMARK   77  A    between atoms: _170  and  _171
REMARK   78  A    between atoms: _170  and  _173
REMARK   79  A    between atoms: _176  and  _178
REMARK   80  A    between atoms: _178  and  _179
REMARK   81  A    between atoms: _178  and  _181
REMARK   82  A    between atoms: _181  and  _182
REMARK   83  A    between atoms: _185  and  _187
REMARK   84  A    between atoms: _187  and  _188
REMARK   85  A    between atoms: _187  and  _190
REMARK   86  A    between atoms: _190  and  _191
REMARK   87  A    between atoms: _194  and  _196
REMARK   88  A    between atoms: _196  and  _197
REMARK   89  A    between atoms: _199  and  _201
REMARK   90  A    between atoms: _201  and  _202
REMARK   91  A    between atoms: _201  and  _204
REMARK   92  A    between atoms: _204  and  _205
REMARK   93  A    between atoms: _208  and  _210
REMARK   94  A    between atoms: _210  and  _211
REMARK   95  A    between atoms: _213  and  _215
REMARK   96  A    between atoms: _215  and  _216
REMARK   97  A    between atoms: _215  and  _218
REMARK   98  A    between atoms: _218  and  _219
REMARK   99  A    between atoms: _219  and  _220
REMARK  100  A    between atoms: _222  and  _224
REMARK  101  A    between atoms: _224  and  _225
REMARK  102  A    between atoms: _224  and  _227
REMARK  103  A    between atoms: _227  and  _228
REMARK  104  A    between atoms: _231  and  _233
REMARK  105  A    between atoms: _233  and  _234
REMARK  106  A    between atoms: _237  and  _239
REMARK  107  A    between atoms: _239  and  _240
REMARK  108  A    between atoms: _239  and  _242
REMARK  109  A    between atoms: _242  and  _243
REMARK  110  A    between atoms: _246  and  _248
REMARK  111  A    between atoms: _248  and  _249
REMARK  112  A    between atoms: _248  and  _251
REMARK  113  A    between atoms: _251  and  _252
REMARK  114  A    between atoms: _255  and  _257
REMARK  115  A    between atoms: _257  and  _258
REMARK  116  A    between atoms: _257  and  _260
REMARK  117  A    between atoms: _260  and  _261
REMARK  118  A    between atoms: _266  and  _268
REMARK  119  A    between atoms: _268  and  _269
REMARK  120  A    between atoms: _268  and  _271
REMARK  121  A    between atoms: _271  and  _272
REMARK  122  A    between atoms: _277  and  _279
REMARK  123  A    between atoms: _279  and  _280
REMARK  124  A    between atoms: _279  and  _282
REMARK  125  A    between atoms: _282  and  _283
REMARK  126  A    between atoms: _286  and  _288
REMARK  127  A    between atoms: _288  and  _289
REMARK  128  A    between atoms: _291  and  _293
REMARK  129  A    between atoms: _293  and  _294
REMARK  130  A    between atoms: _293  and  _296
REMARK  131  A    between atoms: _296  and  _297
REMARK  132  A    between atoms: _300  and  _302
REMARK  133  A    between atoms: _302  and  _303
REMARK  134  A    between atoms: _302  and  _305
REMARK  135  A    between atoms: _305  and  _306
REMARK  136  A    between atoms: _306  and  _307
REMARK  137  A    between atoms: _307  and  _308
REMARK  138  A    between atoms: _308  and  _309
REMARK  139  A    between atoms: _313  and  _315
REMARK  140  A    between atoms: _315  and  _316
REMARK  141  A    between atoms: _318  and  _320
REMARK  142  A    between atoms: _320  and  _321
REMARK  143  A    between atoms: _320  and  _323
REMARK  144  A    between atoms: _323  and  _324
REMARK  145  A    between atoms: _330  and  _332
REMARK  146  A    between atoms: _332  and  _333
REMARK  147  A    between atoms: _335  and  _337
REMARK  148  A    between atoms: _337  and  _338
REMARK  149  A    between atoms: _337  and  _340
REMARK  150  A    between atoms: _343  and  _345
REMARK  151  A    between atoms: _345  and  _346
REMARK  152  A    between atoms: _348  and  _350
REMARK  153  A    between atoms: _350  and  _351
REMARK  154  A    between atoms: _350  and  _353
REMARK  155  A    between atoms: _353  and  _354
REMARK  156  A    between atoms: _360  and  _362
REMARK  157  A    between atoms: _362  and  _363
REMARK  158  A    between atoms: _362  and  _365
REMARK  159  A    between atoms: _365  and  _366
REMARK  160  A    between atoms: _371  and  _372
REMARK  161  A    between atoms: _374  and  _376
REMARK  162  A    between atoms: _376  and  _377
REMARK  163  A    between atoms: _376  and  _379
REMARK  164  A    between atoms: _379  and  _380
REMARK  165  A    between atoms: _382  and  _384
REMARK  166  A    between atoms: _384  and  _385
REMARK  167  A    between atoms: _388  and  _390
REMARK  168  A    between atoms: _390  and  _391
REMARK  169  A    between atoms: _390  and  _393
REMARK  170  A    between atoms: _396  and  _398
REMARK  171  A    between atoms: _398  and  _399
REMARK  172  A    between atoms: _398  and  _401
REMARK  173  A    between atoms: _404  and  _406
REMARK  174  A    between atoms: _406  and  _407
REMARK  175  A    between atoms: _406  and  _409
REMARK  176  A    between atoms: _409  and  _410
REMARK  177  A    between atoms: _413  and  _415
REMARK  178  A    between atoms: _415  and  _416
REMARK  179  A    between atoms: _415  and  _418
REMARK  180  A    between atoms: _418  and  _419
REMARK  181  A    between atoms: _422  and  _424
REMARK  182  A    between atoms: _424  and  _425
REMARK  183  A    between atoms: _424  and  _427
REMARK  184  A    between atoms: _427  and  _428
REMARK  185  A    between atoms: _428  and  _429
REMARK  186  A    between atoms: _429  and  _430
REMARK  187  A    between atoms: _430  and  _431
REMARK  188  A    between atoms: _435  and  _437
REMARK  189  A    between atoms: _437  and  _438
REMARK  190  A    between atoms: _437  and  _440
REMARK  191  A    between atoms: _440  and  _441
REMARK  192  A    between atoms: _446  and  _448
REMARK  193  A    between atoms: _448  and  _449
REMARK  194  A    between atoms: _448  and  _451
REMARK  195  A    between atoms: _451  and  _452
REMARK  196  A    between atoms: _457  and  _459
REMARK  197  A    between atoms: _459  and  _460
REMARK  198  A    between atoms: _459  and  _462
REMARK  199  A    between atoms: _462  and  _463
REMARK  200  A    between atoms: _466  and  _468
REMARK  201  A    between atoms: _468  and  _469
REMARK  202  A    between atoms: _471  and  _473
REMARK  203  A    between atoms: _473  and  _474
REMARK  204  A    between atoms: _473  and  _476
REMARK  205  A    between atoms: _476  and  _477
REMARK  206  A    between atoms: _480  and  _482
REMARK  207  A    between atoms: _482  and  _483
REMARK  208  A    between atoms: _482  and  _485
REMARK  209  A    between atoms: _485  and  _486
REMARK  210  A    between atoms: _486  and  _487
REMARK  211  A    between atoms: _487  and  _488
REMARK  212  A    between atoms: _488  and  _489
REMARK  213  A    between atoms: _493  and  _495
REMARK  214  A    between atoms: _495  and  _496
REMARK  215  A    between atoms: _495  and  _498
REMARK                            x       y       z     vdW  Elec       q    Type
REMARK                         _______ _______ _______ _____ _____    ______ ____
ROOT
ATOM      1  O   HOH     1       4.341   4.433   7.801  0.00  0.00    +0.000 OA
ENDROOT
TORSDOF 0
REMARK  Name = ../refined-set-2016/4b7p/4b7p_pocket.pdb
REMARK  215 active torsions:
REMARK  status: ('A' for Active; 'I' for Inactive)
REMARK    1  A    between atoms: _1  and  _3
REMARK    2  A    between atoms: _3  and  _4
REMARK    3  A    between atoms: _3  and  _6
REMARK    4  A    between atoms: _6  and  _7
REMARK    5  A    between atoms: _10  and  _12
REMARK    6  A    between atoms: _12  and  _13
REMARK    7  A    between atoms: _12  and  _15
REMARK    8  A    between atoms: _15  and  _16
REMARK    9  A    between atoms: _22  and  _24
REMARK   10  A    between atoms: _24  and  _25
REMARK   11  A    between atoms: _24  and  _27
REMARK   12  A    between atoms: _27  and  _28
REMARK   13  A    between atoms: _31  and  _33
REMARK   14  A    between atoms: _33  and  _34
REMARK   15  A    between atoms: _33  and  _36
REMARK   16  A    between atoms: _36  and  _37
REMARK   17  A    between atoms: _37  and  _38
REMARK   18  A    between atoms: _41  and  _43
REMARK   19  A    between atoms: _43  and  _44
REMARK   20  A    between atoms: _43  and  _46
REMARK   21  A    between atoms: _46  and  _47
REMARK   22  A    between atoms: _50  and  _52
REMARK   23  A    between atoms: _52  and  _53
REMARK   24  A    between atoms: _52  and  _55
REMARK   25  A    between atoms: _55  and  _56
REMARK   26  A    between atoms: _59  and  _61
REMARK   27  A    between atoms: _61  and  _62
REMARK   28  A    between atoms: _61  and  _64
REMARK   29  A    between atoms: _64  and  _65
REMARK   30  A    between atoms: _67  and  _69
REMARK   31  A    between atoms: _69  and  _70
REMARK   32  A    between atoms: _69  and  _72
REMARK   33  A    between atoms: _72  and  _73
REMARK   34  A    between atoms: _78  and  _80
REMARK   35  A    between atoms: _80  and  _81
REMARK   36  A    between atoms: _80  and  _83
REMARK   37  A    between atoms: _83  and  _84
REMARK   38  A    between atoms: _86  and  _88
REMARK   39  A    between atoms: _88  and  _89
REMARK   40  A    between atoms: _88  and  _91
REMARK   41  A    between atoms: _91  and  _92
REMARK   42  A    between atoms: _94  and  _96
REMARK   43  A    between atoms: _96  and  _97
REMARK   44  A    between atoms: _96  and  _99
REMARK   45  A    between atoms: _99  and  _100
REMARK   46  A    between atoms: _103  and  _105
REMARK   47  A    between atoms: _105  and  _106
REMARK   48  A    between atoms: _109  and  _111
REMARK   49  A    between atoms: _111  and  _112
REMARK   50  A    between atoms: _111  and  _114
REMARK   51  A    between atoms: _114  and  _115
REMARK   52  A    between atoms: _118  and  _120
REMARK   53  A    between atoms: _120  and  _121
REMARK   54  A    between atoms: _120  and  _123
REMARK   55  A    between atoms: _123  and  _124
REMARK   56  A    between atoms: _127  and  _129
REMARK   57  A    between atoms: _129  and  _130
REMARK   58  A    between atoms: _129  and  _132
REMARK   59  A    between atoms: _132  and  _133
REMARK   60  A    between atoms: _133  and  _134
REMARK   61  A    between atoms: _134  and  _135
REMARK   62  A    between atoms: _135  and  _136
REMARK   63  A    between atoms: _140  and  _142
REMARK   64  A    between atoms: _142  and  _143
REMARK   65  A    between atoms: _142  and  _145
REMARK   66  A    between atoms: _145  and  _146
REMARK   67  A    between atoms: _149  and  _151
REMARK   68  A    between atoms: _151  and  _152
REMARK   69  A    between atoms: _151  and  _154
REMARK   70  A    between atoms: _154  and  _155
REMARK   71  A    between atoms: _155  and  _156
REMARK   72  A    between atoms: _159  and  _161
REMARK   73  A    between atoms: _161  and  _162
REMARK   74  A    between atoms: _161  and  _164
REMARK   75  A    between atoms: _164  and  _165
REMARK   76  A    between atoms: _168  and  _170
REMARK   77  A    between atoms: _170  and  _171
REMARK   78  A    between atoms: _170  and  _173
REMARK   79  A    between atoms: _176  and  _178
REMARK   80  A    between atoms: _178  and  _179
REMARK   81  A    between atoms: _178  and  _181
REMARK   82  A    between atoms: _181  and  _182
REMARK   83  A    between atoms: _185  and  _187
REMARK   84  A    between atoms: _187  and  _188
REMARK   85  A    between atoms: _187  and  _190
REMARK   86  A    between atoms: _190  and  _191
REMARK   87  A    between atoms: _194  and  _196
REMARK   88  A    between atoms: _196  and  _197
REMARK   89  A    between atoms: _199  and  _201
REMARK   90  A    between atoms: _201  and  _202
REMARK   91  A    between atoms: _201  and  _204
REMARK   92  A    between atoms: _204  and  _205
REMARK   93  A    between atoms: _208  and  _210
REMARK   94  A    between atoms: _210  and  _211
REMARK   95  A    between atoms: _213  and  _215
REMARK   96  A    between atoms: _215  and  _216
REMARK   97  A    between atoms: _215  and  _218
REMARK   98  A    between atoms: _218  and  _219
REMARK   99  A    between atoms: _219  and  _220
REMARK  100  A    between atoms: _222  and  _224
REMARK  101  A    between atoms: _224  and  _225
REMARK  102  A    between atoms: _224  and  _227
REMARK  103  A    between atoms: _227  and  _228
REMARK  104  A    between atoms: _231  and  _233
REMARK  105  A    between atoms: _233  and  _234
REMARK  106  A    between atoms: _237  and  _239
REMARK  107  A    between atoms: _239  and  _240
REMARK  108  A    between atoms: _239  and  _242
REMARK  109  A    between atoms: _242  and  _243
REMARK  110  A    between atoms: _246  and  _248
REMARK  111  A    between atoms: _248  and  _249
REMARK  112  A    between atoms: _248  and  _251
REMARK  113  A    between atoms: _251  and  _252
REMARK  114  A    between atoms: _255  and  _257
REMARK  115  A    between atoms: _257  and  _258
REMARK  116  A    between atoms: _257  and  _260
REMARK  117  A    between atoms: _260  and  _261
REMARK  118  A    between atoms: _266  and  _268
REMARK  119  A    between atoms: _268  and  _269
REMARK  120  A    between atoms: _268  and  _271
REMARK  121  A    between atoms: _271  and  _272
REMARK  122  A    between atoms: _277  and  _279
REMARK  123  A    between atoms: _279  and  _280
REMARK  124  A    between atoms: _279  and  _282
REMARK  125  A    between atoms: _282  and  _283
REMARK  126  A    between atoms: _286  and  _288
REMARK  127  A    between atoms: _288  and  _289
REMARK  128  A    between atoms: _291  and  _293
REMARK  129  A    between atoms: _293  and  _294
REMARK  130  A    between atoms: _293  and  _296
REMARK  131  A    between atoms: _296  and  _297
REMARK  132  A    between atoms: _300  and  _302
REMARK  133  A    between atoms: _302  and  _303
REMARK  134  A    between atoms: _302  and  _305
REMARK  135  A    between atoms: _305  and  _306
REMARK  136  A    between atoms: _306  and  _307
REMARK  137  A    between atoms: _307  and  _308
REMARK  138  A    between atoms: _308  and  _309
REMARK  139  A    between atoms: _313  and  _315
REMARK  140  A    between atoms: _315  and  _316
REMARK  141  A    between atoms: _318  and  _320
REMARK  142  A    between atoms: _320  and  _321
REMARK  143  A    between atoms: _320  and  _323
REMARK  144  A    between atoms: _323  and  _324
REMARK  145  A    between atoms: _330  and  _332
REMARK  146  A    between atoms: _332  and  _333
REMARK  147  A    between atoms: _335  and  _337
REMARK  148  A    between atoms: _337  and  _338
REMARK  149  A    between atoms: _337  and  _340
REMARK  150  A    between atoms: _343  and  _345
REMARK  151  A    between atoms: _345  and  _346
REMARK  152  A    between atoms: _348  and  _350
REMARK  153  A    between atoms: _350  and  _351
REMARK  154  A    between atoms: _350  and  _353
REMARK  155  A    between atoms: _353  and  _354
REMARK  156  A    between atoms: _360  and  _362
REMARK  157  A    between atoms: _362  and  _363
REMARK  158  A    between atoms: _362  and  _365
REMARK  159  A    between atoms: _365  and  _366
REMARK  160  A    between atoms: _371  and  _372
REMARK  161  A    between atoms: _374  and  _376
REMARK  162  A    between atoms: _376  and  _377
REMARK  163  A    between atoms: _376  and  _379
REMARK  164  A    between atoms: _379  and  _380
REMARK  165  A    between atoms: _382  and  _384
REMARK  166  A    between atoms: _384  and  _385
REMARK  167  A    between atoms: _388  and  _390
REMARK  168  A    between atoms: _390  and  _391
REMARK  169  A    between atoms: _390  and  _393
REMARK  170  A    between atoms: _396  and  _398
REMARK  171  A    between atoms: _398  and  _399
REMARK  172  A    between atoms: _398  and  _401
REMARK  173  A    between atoms: _404  and  _406
REMARK  174  A    between atoms: _406  and  _407
REMARK  175  A    between atoms: _406  and  _409
REMARK  176  A    between atoms: _409  and  _410
REMARK  177  A    between atoms: _413  and  _415
REMARK  178  A    between atoms: _415  and  _416
REMARK  179  A    between atoms: _415  and  _418
REMARK  180  A    between atoms: _418  and  _419
REMARK  181  A    between atoms: _422  and  _424
REMARK  182  A    between atoms: _424  and  _425
REMARK  183  A    between atoms: _424  and  _427
REMARK  184  A    between atoms: _427  and  _428
REMARK  185  A    between atoms: _428  and  _429
REMARK  186  A    between atoms: _429  and  _430
REMARK  187  A    between atoms: _430  and  _431
REMARK  188  A    between atoms: _435  and  _437
REMARK  189  A    between atoms: _437  and  _438
REMARK  190  A    between atoms: _437  and  _440
REMARK  191  A    between atoms: _440  and  _441
REMARK  192  A    between atoms: _446  and  _448
REMARK  193  A    between atoms: _448  and  _449
REMARK  194  A    between atoms: _448  and  _451
REMARK  195  A    between atoms: _451  and  _452
REMARK  196  A    between atoms: _457  and  _459
REMARK  197  A    between atoms: _459  and  _460
REMARK  198  A    between atoms: _459  and  _462
REMARK  199  A    between atoms: _462  and  _463
REMARK  200  A    between atoms: _466  and  _468
REMARK  201  A    between atoms: _468  and  _469
REMARK  202  A    between atoms: _471  and  _473
REMARK  203  A    between atoms: _473  and  _474
REMARK  204  A    between atoms: _473  and  _476
REMARK  205  A    between atoms: _476  and  _477
REMARK  206  A    between atoms: _480  and  _482
REMARK  207  A    between atoms: _482  and  _483
REMARK  208  A    between atoms: _482  and  _485
REMARK  209  A    between atoms: _485  and  _486
REMARK  210  A    between atoms: _486  and  _487
REMARK  211  A    between atoms: _487  and  _488
REMARK  212  A    between atoms: _488  and  _489
REMARK  213  A    between atoms: _493  and  _495
REMARK  214  A    between atoms: _495  and  _496
REMARK  215  A    between atoms: _495  and  _498
REMARK                            x       y       z     vdW  Elec       q    Type
REMARK                         _______ _______ _______ _____ _____    ______ ____
ROOT
ATOM      1  O   HOH     1       4.292   3.674   5.210  0.00  0.00    +0.000 OA
ENDROOT
TORSDOF 0
REMARK  Name = ../refined-set-2016/4b7p/4b7p_pocket.pdb
REMARK  215 active torsions:
REMARK  status: ('A' for Active; 'I' for Inactive)
REMARK    1  A    between atoms: _1  and  _3
REMARK    2  A    between atoms: _3  and  _4
REMARK    3  A    between atoms: _3  and  _6
REMARK    4  A    between atoms: _6  and  _7
REMARK    5  A    between atoms: _10  and  _12
REMARK    6  A    between atoms: _12  and  _13
REMARK    7  A    between atoms: _12  and  _15
REMARK    8  A    between atoms: _15  and  _16
REMARK    9  A    between atoms: _22  and  _24
REMARK   10  A    between atoms: _24  and  _25
REMARK   11  A    between atoms: _24  and  _27
REMARK   12  A    between atoms: _27  and  _28
REMARK   13  A    between atoms: _31  and  _33
REMARK   14  A    between atoms: _33  and  _34
REMARK   15  A    between atoms: _33  and  _36
REMARK   16  A    between atoms: _36  and  _37
REMARK   17  A    between atoms: _37  and  _38
REMARK   18  A    between atoms: _41  and  _43
REMARK   19  A    between atoms: _43  and  _44
REMARK   20  A    between atoms: _43  and  _46
REMARK   21  A    between atoms: _46  and  _47
REMARK   22  A    between atoms: _50  and  _52
REMARK   23  A    between atoms: _52  and  _53
REMARK   24  A    between atoms: _52  and  _55
REMARK   25  A    between atoms: _55  and  _56
REMARK   26  A    between atoms: _59  and  _61
REMARK   27  A    between atoms: _61  and  _62
REMARK   28  A    between atoms: _61  and  _64
REMARK   29  A    between atoms: _64  and  _65
REMARK   30  A    between atoms: _67  and  _69
REMARK   31  A    between atoms: _69  and  _70
REMARK   32  A    between atoms: _69  and  _72
REMARK   33  A    between atoms: _72  and  _73
REMARK   34  A    between atoms: _78  and  _80
REMARK   35  A    between atoms: _80  and  _81
REMARK   36  A    between atoms: _80  and  _83
REMARK   37  A    between atoms: _83  and  _84
REMARK   38  A    between atoms: _86  and  _88
REMARK   39  A    between atoms: _88  and  _89
REMARK   40  A    between atoms: _88  and  _91
REMARK   41  A    between atoms: _91  and  _92
REMARK   42  A    between atoms: _94  and  _96
REMARK   43  A    between atoms: _96  and  _97
REMARK   44  A    between atoms: _96  and  _99
REMARK   45  A    between atoms: _99  and  _100
REMARK   46  A    between atoms: _103  and  _105
REMARK   47  A    between atoms: _105  and  _106
REMARK   48  A    between atoms: _109  and  _111
REMARK   49  A    between atoms: _111  and  _112
REMARK   50  A    between atoms: _111  and  _114
REMARK   51  A    between atoms: _114  and  _115
REMARK   52  A    between atoms: _118  and  _120
REMARK   53  A    between atoms: _120  and  _121
REMARK   54  A    between atoms: _120  and  _123
REMARK   55  A    between atoms: _123  and  _124
REMARK   56  A    between atoms: _127  and  _129
REMARK   57  A    between atoms: _129  and  _130
REMARK   58  A    between atoms: _129  and  _132
REMARK   59  A    between atoms: _132  and  _133
REMARK   60  A    between atoms: _133  and  _134
REMARK   61  A    between atoms: _134  and  _135
REMARK   62  A    between atoms: _135  and  _136
REMARK   63  A    between atoms: _140  and  _142
REMARK   64  A    between atoms: _142  and  _143
REMARK   65  A    between atoms: _142  and  _145
REMARK   66  A    between atoms: _145  and  _146
REMARK   67  A    between atoms: _149  and  _151
REMARK   68  A    between atoms: _151  and  _152
REMARK   69  A    between atoms: _151  and  _154
REMARK   70  A    between atoms: _154  and  _155
REMARK   71  A    between atoms: _155  and  _156
REMARK   72  A    between atoms: _159  and  _161
REMARK   73  A    between atoms: _161  and  _162
REMARK   74  A    between atoms: _161  and  _164
REMARK   75  A    between atoms: _164  and  _165
REMARK   76  A    between atoms: _168  and  _170
REMARK   77  A    between atoms: _170  and  _171
REMARK   78  A    between atoms: _170  and  _173
REMARK   79  A    between atoms: _176  and  _178
REMARK   80  A    between atoms: _178  and  _179
REMARK   81  A    between atoms: _178  and  _181
REMARK   82  A    between atoms: _181  and  _182
REMARK   83  A    between atoms: _185  and  _187
REMARK   84  A    between atoms: _187  and  _188
REMARK   85  A    between atoms: _187  and  _190
REMARK   86  A    between atoms: _190  and  _191
REMARK   87  A    between atoms: _194  and  _196
REMARK   88  A    between atoms: _196  and  _197
REMARK   89  A    between atoms: _199  and  _201
REMARK   90  A    between atoms: _201  and  _202
REMARK   91  A    between atoms: _201  and  _204
REMARK   92  A    between atoms: _204  and  _205
REMARK   93  A    between atoms: _208  and  _210
REMARK   94  A    between atoms: _210  and  _211
REMARK   95  A    between atoms: _213  and  _215
REMARK   96  A    between atoms: _215  and  _216
REMARK   97  A    between atoms: _215  and  _218
REMARK   98  A    between atoms: _218  and  _219
REMARK   99  A    between atoms: _219  and  _220
REMARK  100  A    between atoms: _222  and  _224
REMARK  101  A    between atoms: _224  and  _225
REMARK  102  A    between atoms: _224  and  _227
REMARK  103  A    between atoms: _227  and  _228
REMARK  104  A    between atoms: _231  and  _233
REMARK  105  A    between atoms: _233  and  _234
REMARK  106  A    between atoms: _237  and  _239
REMARK  107  A    between atoms: _239  and  _240
REMARK  108  A    between atoms: _239  and  _242
REMARK  109  A    between atoms: _242  and  _243
REMARK  110  A    between atoms: _246  and  _248
REMARK  111  A    between atoms: _248  and  _249
REMARK  112  A    between atoms: _248  and  _251
REMARK  113  A    between atoms: _251  and  _252
REMARK  114  A    between atoms: _255  and  _257
REMARK  115  A    between atoms: _257  and  _258
REMARK  116  A    between atoms: _257  and  _260
REMARK  117  A    between atoms: _260  and  _261
REMARK  118  A    between atoms: _266  and  _268
REMARK  119  A    between atoms: _268  and  _269
REMARK  120  A    between atoms: _268  and  _271
REMARK  121  A    between atoms: _271  and  _272
REMARK  122  A    between atoms: _277  and  _279
REMARK  123  A    between atoms: _279  and  _280
REMARK  124  A    between atoms: _279  and  _282
REMARK  125  A    between atoms: _282  and  _283
REMARK  126  A    between atoms: _286  and  _288
REMARK  127  A    between atoms: _288  and  _289
REMARK  128  A    between atoms: _291  and  _293
REMARK  129  A    between atoms: _293  and  _294
REMARK  130  A    between atoms: _293  and  _296
REMARK  131  A    between atoms: _296  and  _297
REMARK  132  A    between atoms: _300  and  _302
REMARK  133  A    between atoms: _302  and  _303
REMARK  134  A    between atoms: _302  and  _305
REMARK  135  A    between atoms: _305  and  _306
REMARK  136  A    between atoms: _306  and  _307
REMARK  137  A    between atoms: _307  and  _308
REMARK  138  A    between atoms: _308  and  _309
REMARK  139  A    between atoms: _313  and  _315
REMARK  140  A    between atoms: _315  and  _316
REMARK  141  A    between atoms: _318  and  _320
REMARK  142  A    between atoms: _320  and  _321
REMARK  143  A    between atoms: _320  and  _323
REMARK  144  A    between atoms: _323  and  _324
REMARK  145  A    between atoms: _330  and  _332
REMARK  146  A    between atoms: _332  and  _333
REMARK  147  A    between atoms: _335  and  _337
REMARK  148  A    between atoms: _337  and  _338
REMARK  149  A    between atoms: _337  and  _340
REMARK  150  A    between atoms: _343  and  _345
REMARK  151  A    between atoms: _345  and  _346
REMARK  152  A    between atoms: _348  and  _350
REMARK  153  A    between atoms: _350  and  _351
REMARK  154  A    between atoms: _350  and  _353
REMARK  155  A    between atoms: _353  and  _354
REMARK  156  A    between atoms: _360  and  _362
REMARK  157  A    between atoms: _362  and  _363
REMARK  158  A    between atoms: _362  and  _365
REMARK  159  A    between atoms: _365  and  _366
REMARK  160  A    between atoms: _371  and  _372
REMARK  161  A    between atoms: _374  and  _376
REMARK  162  A    between atoms: _376  and  _377
REMARK  163  A    between atoms: _376  and  _379
REMARK  164  A    between atoms: _379  and  _380
REMARK  165  A    between atoms: _382  and  _384
REMARK  166  A    between atoms: _384  and  _385
REMARK  167  A    between atoms: _388  and  _390
REMARK  168  A    between atoms: _390  and  _391
REMARK  169  A    between atoms: _390  and  _393
REMARK  170  A    between atoms: _396  and  _398
REMARK  171  A    between atoms: _398  and  _399
REMARK  172  A    between atoms: _398  and  _401
REMARK  173  A    between atoms: _404  and  _406
REMARK  174  A    between atoms: _406  and  _407
REMARK  175  A    between atoms: _406  and  _409
REMARK  176  A    between atoms: _409  and  _410
REMARK  177  A    between atoms: _413  and  _415
REMARK  178  A    between atoms: _415  and  _416
REMARK  179  A    between atoms: _415  and  _418
REMARK  180  A    between atoms: _418  and  _419
REMARK  181  A    between atoms: _422  and  _424
REMARK  182  A    between atoms: _424  and  _425
REMARK  183  A    between atoms: _424  and  _427
REMARK  184  A    between atoms: _427  and  _428
REMARK  185  A    between atoms: _428  and  _429
REMARK  186  A    between atoms: _429  and  _430
REMARK  187  A    between atoms: _430  and  _431
REMARK  188  A    between atoms: _435  and  _437
REMARK  189  A    between atoms: _437  and  _438
REMARK  190  A    between atoms: _437  and  _440
REMARK  191  A    between atoms: _440  and  _441
REMARK  192  A    between atoms: _446  and  _448
REMARK  193  A    between atoms: _448  and  _449
REMARK  194  A    between atoms: _448  and  _451
REMARK  195  A    between atoms: _451  and  _452
REMARK  196  A    between atoms: _457  and  _459
REMARK  197  A    between atoms: _459  and  _460
REMARK  198  A    between atoms: _459  and  _462
REMARK  199  A    between atoms: _462  and  _463
REMARK  200  A    between atoms: _466  and  _468
REMARK  201  A    between atoms: _468  and  _469
REMARK  202  A    between atoms: _471  and  _473
REMARK  203  A    between atoms: _473  and  _474
REMARK  204  A    between atoms: _473  and  _476
REMARK  205  A    between atoms: _476  and  _477
REMARK  206  A    between atoms: _480  and  _482
REMARK  207  A    between atoms: _482  and  _483
REMARK  208  A    between atoms: _482  and  _485
REMARK  209  A    between atoms: _485  and  _486
REMARK  210  A    between atoms: _486  and  _487
REMARK  211  A    between atoms: _487  and  _488
REMARK  212  A    between atoms: _488  and  _489
REMARK  213  A    between atoms: _493  and  _495
REMARK  214  A    between atoms: _495  and  _496
REMARK  215  A    between atoms: _495  and  _498
REMARK                            x       y       z     vdW  Elec       q    Type
REMARK                         _______ _______ _______ _____ _____    ______ ____
ROOT
ATOM      1  O   HOH     1       9.738   0.126   8.327  0.00  0.00    +0.000 OA
ENDROOT
TORSDOF 0
REMARK  Name = ../refined-set-2016/4b7p/4b7p_pocket.pdb
REMARK  215 active torsions:
REMARK  status: ('A' for Active; 'I' for Inactive)
REMARK    1  A    between atoms: _1  and  _3
REMARK    2  A    between atoms: _3  and  _4
REMARK    3  A    between atoms: _3  and  _6
REMARK    4  A    between atoms: _6  and  _7
REMARK    5  A    between atoms: _10  and  _12
REMARK    6  A    between atoms: _12  and  _13
REMARK    7  A    between atoms: _12  and  _15
REMARK    8  A    between atoms: _15  and  _16
REMARK    9  A    between atoms: _22  and  _24
REMARK   10  A    between atoms: _24  and  _25
REMARK   11  A    between atoms: _24  and  _27
REMARK   12  A    between atoms: _27  and  _28
REMARK   13  A    between atoms: _31  and  _33
REMARK   14  A    between atoms: _33  and  _34
REMARK   15  A    between atoms: _33  and  _36
REMARK   16  A    between atoms: _36  and  _37
REMARK   17  A    between atoms: _37  and  _38
REMARK   18  A    between atoms: _41  and  _43
REMARK   19  A    between atoms: _43  and  _44
REMARK   20  A    between atoms: _43  and  _46
REMARK   21  A    between atoms: _46  and  _47
REMARK   22  A    between atoms: _50  and  _52
REMARK   23  A    between atoms: _52  and  _53
REMARK   24  A    between atoms: _52  and  _55
REMARK   25  A    between atoms: _55  and  _56
REMARK   26  A    between atoms: _59  and  _61
REMARK   27  A    between atoms: _61  and  _62
REMARK   28  A    between atoms: _61  and  _64
REMARK   29  A    between atoms: _64  and  _65
REMARK   30  A    between atoms: _67  and  _69
REMARK   31  A    between atoms: _69  and  _70
REMARK   32  A    between atoms: _69  and  _72
REMARK   33  A    between atoms: _72  and  _73
REMARK   34  A    between atoms: _78  and  _80
REMARK   35  A    between atoms: _80  and  _81
REMARK   36  A    between atoms: _80  and  _83
REMARK   37  A    between atoms: _83  and  _84
REMARK   38  A    between atoms: _86  and  _88
REMARK   39  A    between atoms: _88  and  _89
REMARK   40  A    between atoms: _88  and  _91
REMARK   41  A    between atoms: _91  and  _92
REMARK   42  A    between atoms: _94  and  _96
REMARK   43  A    between atoms: _96  and  _97
REMARK   44  A    between atoms: _96  and  _99
REMARK   45  A    between atoms: _99  and  _100
REMARK   46  A    between atoms: _103  and  _105
REMARK   47  A    between atoms: _105  and  _106
REMARK   48  A    between atoms: _109  and  _111
REMARK   49  A    between atoms: _111  and  _112
REMARK   50  A    between atoms: _111  and  _114
REMARK   51  A    between atoms: _114  and  _115
REMARK   52  A    between atoms: _118  and  _120
REMARK   53  A    between atoms: _120  and  _121
REMARK   54  A    between atoms: _120  and  _123
REMARK   55  A    between atoms: _123  and  _124
REMARK   56  A    between atoms: _127  and  _129
REMARK   57  A    between atoms: _129  and  _130
REMARK   58  A    between atoms: _129  and  _132
REMARK   59  A    between atoms: _132  and  _133
REMARK   60  A    between atoms: _133  and  _134
REMARK   61  A    between atoms: _134  and  _135
REMARK   62  A    between atoms: _135  and  _136
REMARK   63  A    between atoms: _140  and  _142
REMARK   64  A    between atoms: _142  and  _143
REMARK   65  A    between atoms: _142  and  _145
REMARK   66  A    between atoms: _145  and  _146
REMARK   67  A    between atoms: _149  and  _151
REMARK   68  A    between atoms: _151  and  _152
REMARK   69  A    between atoms: _151  and  _154
REMARK   70  A    between atoms: _154  and  _155
REMARK   71  A    between atoms: _155  and  _156
REMARK   72  A    between atoms: _159  and  _161
REMARK   73  A    between atoms: _161  and  _162
REMARK   74  A    between atoms: _161  and  _164
REMARK   75  A    between atoms: _164  and  _165
REMARK   76  A    between atoms: _168  and  _170
REMARK   77  A    between atoms: _170  and  _171
REMARK   78  A    between atoms: _170  and  _173
REMARK   79  A    between atoms: _176  and  _178
REMARK   80  A    between atoms: _178  and  _179
REMARK   81  A    between atoms: _178  and  _181
REMARK   82  A    between atoms: _181  and  _182
REMARK   83  A    between atoms: _185  and  _187
REMARK   84  A    between atoms: _187  and  _188
REMARK   85  A    between atoms: _187  and  _190
REMARK   86  A    between atoms: _190  and  _191
REMARK   87  A    between atoms: _194  and  _196
REMARK   88  A    between atoms: _196  and  _197
REMARK   89  A    between atoms: _199  and  _201
REMARK   90  A    between atoms: _201  and  _202
REMARK   91  A    between atoms: _201  and  _204
REMARK   92  A    between atoms: _204  and  _205
REMARK   93  A    between atoms: _208  and  _210
REMARK   94  A    between atoms: _210  and  _211
REMARK   95  A    between atoms: _213  and  _215
REMARK   96  A    between atoms: _215  and  _216
REMARK   97  A    between atoms: _215  and  _218
REMARK   98  A    between atoms: _218  and  _219
REMARK   99  A    between atoms: _219  and  _220
REMARK  100  A    between atoms: _222  and  _224
REMARK  101  A    between atoms: _224  and  _225
REMARK  102  A    between atoms: _224  and  _227
REMARK  103  A    between atoms: _227  and  _228
REMARK  104  A    between atoms: _231  and  _233
REMARK  105  A    between atoms: _233  and  _234
REMARK  106  A    between atoms: _237  and  _239
REMARK  107  A    between atoms: _239  and  _240
REMARK  108  A    between atoms: _239  and  _242
REMARK  109  A    between atoms: _242  and  _243
REMARK  110  A    between atoms: _246  and  _248
REMARK  111  A    between atoms: _248  and  _249
REMARK  112  A    between atoms: _248  and  _251
REMARK  113  A    between atoms: _251  and  _252
REMARK  114  A    between atoms: _255  and  _257
REMARK  115  A    between atoms: _257  and  _258
REMARK  116  A    between atoms: _257  and  _260
REMARK  117  A    between atoms: _260  and  _261
REMARK  118  A    between atoms: _266  and  _268
REMARK  119  A    between atoms: _268  and  _269
REMARK  120  A    between atoms: _268  and  _271
REMARK  121  A    between atoms: _271  and  _272
REMARK  122  A    between atoms: _277  and  _279
REMARK  123  A    between atoms: _279  and  _280
REMARK  124  A    between atoms: _279  and  _282
REMARK  125  A    between atoms: _282  and  _283
REMARK  126  A    between atoms: _286  and  _288
REMARK  127  A    between atoms: _288  and  _289
REMARK  128  A    between atoms: _291  and  _293
REMARK  129  A    between atoms: _293  and  _294
REMARK  130  A    between atoms: _293  and  _296
REMARK  131  A    between atoms: _296  and  _297
REMARK  132  A    between atoms: _300  and  _302
REMARK  133  A    between atoms: _302  and  _303
REMARK  134  A    between atoms: _302  and  _305
REMARK  135  A    between atoms: _305  and  _306
REMARK  136  A    between atoms: _306  and  _307
REMARK  137  A    between atoms: _307  and  _308
REMARK  138  A    between atoms: _308  and  _309
REMARK  139  A    between atoms: _313  and  _315
REMARK  140  A    between atoms: _315  and  _316
REMARK  141  A    between atoms: _318  and  _320
REMARK  142  A    between atoms: _320  and  _321
REMARK  143  A    between atoms: _320  and  _323
REMARK  144  A    between atoms: _323  and  _324
REMARK  145  A    between atoms: _330  and  _332
REMARK  146  A    between atoms: _332  and  _333
REMARK  147  A    between atoms: _335  and  _337
REMARK  148  A    between atoms: _337  and  _338
REMARK  149  A    between atoms: _337  and  _340
REMARK  150  A    between atoms: _343  and  _345
REMARK  151  A    between atoms: _345  and  _346
REMARK  152  A    between atoms: _348  and  _350
REMARK  153  A    between atoms: _350  and  _351
REMARK  154  A    between atoms: _350  and  _353
REMARK  155  A    between atoms: _353  and  _354
REMARK  156  A    between atoms: _360  and  _362
REMARK  157  A    between atoms: _362  and  _363
REMARK  158  A    between atoms: _362  and  _365
REMARK  159  A    between atoms: _365  and  _366
REMARK  160  A    between atoms: _371  and  _372
REMARK  161  A    between atoms: _374  and  _376
REMARK  162  A    between atoms: _376  and  _377
REMARK  163  A    between atoms: _376  and  _379
REMARK  164  A    between atoms: _379  and  _380
REMARK  165  A    between atoms: _382  and  _384
REMARK  166  A    between atoms: _384  and  _385
REMARK  167  A    between atoms: _388  and  _390
REMARK  168  A    between atoms: _390  and  _391
REMARK  169  A    between atoms: _390  and  _393
REMARK  170  A    between atoms: _396  and  _398
REMARK  171  A    between atoms: _398  and  _399
REMARK  172  A    between atoms: _398  and  _401
REMARK  173  A    between atoms: _404  and  _406
REMARK  174  A    between atoms: _406  and  _407
REMARK  175  A    between atoms: _406  and  _409
REMARK  176  A    between atoms: _409  and  _410
REMARK  177  A    between atoms: _413  and  _415
REMARK  178  A    between atoms: _415  and  _416
REMARK  179  A    between atoms: _415  and  _418
REMARK  180  A    between atoms: _418  and  _419
REMARK  181  A    between atoms: _422  and  _424
REMARK  182  A    between atoms: _424  and  _425
REMARK  183  A    between atoms: _424  and  _427
REMARK  184  A    between atoms: _427  and  _428
REMARK  185  A    between atoms: _428  and  _429
REMARK  186  A    between atoms: _429  and  _430
REMARK  187  A    between atoms: _430  and  _431
REMARK  188  A    between atoms: _435  and  _437
REMARK  189  A    between atoms: _437  and  _438
REMARK  190  A    between atoms: _437  and  _440
REMARK  191  A    between atoms: _440  and  _441
REMARK  192  A    between atoms: _446  and  _448
REMARK  193  A    between atoms: _448  and  _449
REMARK  194  A    between atoms: _448  and  _451
REMARK  195  A    between atoms: _451  and  _452
REMARK  196  A    between atoms: _457  and  _459
REMARK  197  A    between atoms: _459  and  _460
REMARK  198  A    between atoms: _459  and  _462
REMARK  199  A    between atoms: _462  and  _463
REMARK  200  A    between atoms: _466  and  _468
REMARK  201  A    between atoms: _468  and  _469
REMARK  202  A    between atoms: _471  and  _473
REMARK  203  A    between atoms: _473  and  _474
REMARK  204  A    between atoms: _473  and  _476
REMARK  205  A    between atoms: _476  and  _477
REMARK  206  A    between atoms: _480  and  _482
REMARK  207  A    between atoms: _482  and  _483
REMARK  208  A    between atoms: _482  and  _485
REMARK  209  A    between atoms: _485  and  _486
REMARK  210  A    between atoms: _486  and  _487
REMARK  211  A    between atoms: _487  and  _488
REMARK  212  A    between atoms: _488  and  _489
REMARK  213  A    between atoms: _493  and  _495
REMARK  214  A    between atoms: _495  and  _496
REMARK  215  A    between atoms: _495  and  _498
REMARK                            x       y       z     vdW  Elec       q    Type
REMARK                         _______ _______ _______ _____ _____    ______ ____
ROOT
ATOM      1  O   HOH     1      11.007   4.773  13.121  0.00  0.00    +0.000 OA
ENDROOT
TORSDOF 0
REMARK  Name = ../refined-set-2016/4b7p/4b7p_pocket.pdb
REMARK  215 active torsions:
REMARK  status: ('A' for Active; 'I' for Inactive)
REMARK    1  A    between atoms: _1  and  _3
REMARK    2  A    between atoms: _3  and  _4
REMARK    3  A    between atoms: _3  and  _6
REMARK    4  A    between atoms: _6  and  _7
REMARK    5  A    between atoms: _10  and  _12
REMARK    6  A    between atoms: _12  and  _13
REMARK    7  A    between atoms: _12  and  _15
REMARK    8  A    between atoms: _15  and  _16
REMARK    9  A    between atoms: _22  and  _24
REMARK   10  A    between atoms: _24  and  _25
REMARK   11  A    between atoms: _24  and  _27
REMARK   12  A    between atoms: _27  and  _28
REMARK   13  A    between atoms: _31  and  _33
REMARK   14  A    between atoms: _33  and  _34
REMARK   15  A    between atoms: _33  and  _36
REMARK   16  A    between atoms: _36  and  _37
REMARK   17  A    between atoms: _37  and  _38
REMARK   18  A    between atoms: _41  and  _43
REMARK   19  A    between atoms: _43  and  _44
REMARK   20  A    between atoms: _43  and  _46
REMARK   21  A    between atoms: _46  and  _47
REMARK   22  A    between atoms: _50  and  _52
REMARK   23  A    between atoms: _52  and  _53
REMARK   24  A    between atoms: _52  and  _55
REMARK   25  A    between atoms: _55  and  _56
REMARK   26  A    between atoms: _59  and  _61
REMARK   27  A    between atoms: _61  and  _62
REMARK   28  A    between atoms: _61  and  _64
REMARK   29  A    between atoms: _64  and  _65
REMARK   30  A    between atoms: _67  and  _69
REMARK   31  A    between atoms: _69  and  _70
REMARK   32  A    between atoms: _69  and  _72
REMARK   33  A    between atoms: _72  and  _73
REMARK   34  A    between atoms: _78  and  _80
REMARK   35  A    between atoms: _80  and  _81
REMARK   36  A    between atoms: _80  and  _83
REMARK   37  A    between atoms: _83  and  _84
REMARK   38  A    between atoms: _86  and  _88
REMARK   39  A    between atoms: _88  and  _89
REMARK   40  A    between atoms: _88  and  _91
REMARK   41  A    between atoms: _91  and  _92
REMARK   42  A    between atoms: _94  and  _96
REMARK   43  A    between atoms: _96  and  _97
REMARK   44  A    between atoms: _96  and  _99
REMARK   45  A    between atoms: _99  and  _100
REMARK   46  A    between atoms: _103  and  _105
REMARK   47  A    between atoms: _105  and  _106
REMARK   48  A    between atoms: _109  and  _111
REMARK   49  A    between atoms: _111  and  _112
REMARK   50  A    between atoms: _111  and  _114
REMARK   51  A    between atoms: _114  and  _115
REMARK   52  A    between atoms: _118  and  _120
REMARK   53  A    between atoms: _120  and  _121
REMARK   54  A    between atoms: _120  and  _123
REMARK   55  A    between atoms: _123  and  _124
REMARK   56  A    between atoms: _127  and  _129
REMARK   57  A    between atoms: _129  and  _130
REMARK   58  A    between atoms: _129  and  _132
REMARK   59  A    between atoms: _132  and  _133
REMARK   60  A    between atoms: _133  and  _134
REMARK   61  A    between atoms: _134  and  _135
REMARK   62  A    between atoms: _135  and  _136
REMARK   63  A    between atoms: _140  and  _142
REMARK   64  A    between atoms: _142  and  _143
REMARK   65  A    between atoms: _142  and  _145
REMARK   66  A    between atoms: _145  and  _146
REMARK   67  A    between atoms: _149  and  _151
REMARK   68  A    between atoms: _151  and  _152
REMARK   69  A    between atoms: _151  and  _154
REMARK   70  A    between atoms: _154  and  _155
REMARK   71  A    between atoms: _155  and  _156
REMARK   72  A    between atoms: _159  and  _161
REMARK   73  A    between atoms: _161  and  _162
REMARK   74  A    between atoms: _161  and  _164
REMARK   75  A    between atoms: _164  and  _165
REMARK   76  A    between atoms: _168  and  _170
REMARK   77  A    between atoms: _170  and  _171
REMARK   78  A    between atoms: _170  and  _173
REMARK   79  A    between atoms: _176  and  _178
REMARK   80  A    between atoms: _178  and  _179
REMARK   81  A    between atoms: _178  and  _181
REMARK   82  A    between atoms: _181  and  _182
REMARK   83  A    between atoms: _185  and  _187
REMARK   84  A    between atoms: _187  and  _188
REMARK   85  A    between atoms: _187  and  _190
REMARK   86  A    between atoms: _190  and  _191
REMARK   87  A    between atoms: _194  and  _196
REMARK   88  A    between atoms: _196  and  _197
REMARK   89  A    between atoms: _199  and  _201
REMARK   90  A    between atoms: _201  and  _202
REMARK   91  A    between atoms: _201  and  _204
REMARK   92  A    between atoms: _204  and  _205
REMARK   93  A    between atoms: _208  and  _210
REMARK   94  A    between atoms: _210  and  _211
REMARK   95  A    between atoms: _213  and  _215
REMARK   96  A    between atoms: _215  and  _216
REMARK   97  A    between atoms: _215  and  _218
REMARK   98  A    between atoms: _218  and  _219
REMARK   99  A    between atoms: _219  and  _220
REMARK  100  A    between atoms: _222  and  _224
REMARK  101  A    between atoms: _224  and  _225
REMARK  102  A    between atoms: _224  and  _227
REMARK  103  A    between atoms: _227  and  _228
REMARK  104  A    between atoms: _231  and  _233
REMARK  105  A    between atoms: _233  and  _234
REMARK  106  A    between atoms: _237  and  _239
REMARK  107  A    between atoms: _239  and  _240
REMARK  108  A    between atoms: _239  and  _242
REMARK  109  A    between atoms: _242  and  _243
REMARK  110  A    between atoms: _246  and  _248
REMARK  111  A    between atoms: _248  and  _249
REMARK  112  A    between atoms: _248  and  _251
REMARK  113  A    between atoms: _251  and  _252
REMARK  114  A    between atoms: _255  and  _257
REMARK  115  A    between atoms: _257  and  _258
REMARK  116  A    between atoms: _257  and  _260
REMARK  117  A    between atoms: _260  and  _261
REMARK  118  A    between atoms: _266  and  _268
REMARK  119  A    between atoms: _268  and  _269
REMARK  120  A    between atoms: _268  and  _271
REMARK  121  A    between atoms: _271  and  _272
REMARK  122  A    between atoms: _277  and  _279
REMARK  123  A    between atoms: _279  and  _280
REMARK  124  A    between atoms: _279  and  _282
REMARK  125  A    between atoms: _282  and  _283
REMARK  126  A    between atoms: _286  and  _288
REMARK  127  A    between atoms: _288  and  _289
REMARK  128  A    between atoms: _291  and  _293
REMARK  129  A    between atoms: _293  and  _294
REMARK  130  A    between atoms: _293  and  _296
REMARK  131  A    between atoms: _296  and  _297
REMARK  132  A    between atoms: _300  and  _302
REMARK  133  A    between atoms: _302  and  _303
REMARK  134  A    between atoms: _302  and  _305
REMARK  135  A    between atoms: _305  and  _306
REMARK  136  A    between atoms: _306  and  _307
REMARK  137  A    between atoms: _307  and  _308
REMARK  138  A    between atoms: _308  and  _309
REMARK  139  A    between atoms: _313  and  _315
REMARK  140  A    between atoms: _315  and  _316
REMARK  141  A    between atoms: _318  and  _320
REMARK  142  A    between atoms: _320  and  _321
REMARK  143  A    between atoms: _320  and  _323
REMARK  144  A    between atoms: _323  and  _324
REMARK  145  A    between atoms: _330  and  _332
REMARK  146  A    between atoms: _332  and  _333
REMARK  147  A    between atoms: _335  and  _337
REMARK  148  A    between atoms: _337  and  _338
REMARK  149  A    between atoms: _337  and  _340
REMARK  150  A    between atoms: _343  and  _345
REMARK  151  A    between atoms: _345  and  _346
REMARK  152  A    between atoms: _348  and  _350
REMARK  153  A    between atoms: _350  and  _351
REMARK  154  A    between atoms: _350  and  _353
REMARK  155  A    between atoms: _353  and  _354
REMARK  156  A    between atoms: _360  and  _362
REMARK  157  A    between atoms: _362  and  _363
REMARK  158  A    between atoms: _362  and  _365
REMARK  159  A    between atoms: _365  and  _366
REMARK  160  A    between atoms: _371  and  _372
REMARK  161  A    between atoms: _374  and  _376
REMARK  162  A    between atoms: _376  and  _377
REMARK  163  A    between atoms: _376  and  _379
REMARK  164  A    between atoms: _379  and  _380
REMARK  165  A    between atoms: _382  and  _384
REMARK  166  A    between atoms: _384  and  _385
REMARK  167  A    between atoms: _388  and  _390
REMARK  168  A    between atoms: _390  and  _391
REMARK  169  A    between atoms: _390  and  _393
REMARK  170  A    between atoms: _396  and  _398
REMARK  171  A    between atoms: _398  and  _399
REMARK  172  A    between atoms: _398  and  _401
REMARK  173  A    between atoms: _404  and  _406
REMARK  174  A    between atoms: _406  and  _407
REMARK  175  A    between atoms: _406  and  _409
REMARK  176  A    between atoms: _409  and  _410
REMARK  177  A    between atoms: _413  and  _415
REMARK  178  A    between atoms: _415  and  _416
REMARK  179  A    between atoms: _415  and  _418
REMARK  180  A    between atoms: _418  and  _419
REMARK  181  A    between atoms: _422  and  _424
REMARK  182  A    between atoms: _424  and  _425
REMARK  183  A    between atoms: _424  and  _427
REMARK  184  A    between atoms: _427  and  _428
REMARK  185  A    between atoms: _428  and  _429
REMARK  186  A    between atoms: _429  and  _430
REMARK  187  A    between atoms: _430  and  _431
REMARK  188  A    between atoms: _435  and  _437
REMARK  189  A    between atoms: _437  and  _438
REMARK  190  A    between atoms: _437  and  _440
REMARK  191  A    between atoms: _440  and  _441
REMARK  192  A    between atoms: _446  and  _448
REMARK  193  A    between atoms: _448  and  _449
REMARK  194  A    between atoms: _448  and  _451
REMARK  195  A    between atoms: _451  and  _452
REMARK  196  A    between atoms: _457  and  _459
REMARK  197  A    between atoms: _459  and  _460
REMARK  198  A    between atoms: _459  and  _462
REMARK  199  A    between atoms: _462  and  _463
REMARK  200  A    between atoms: _466  and  _468
REMARK  201  A    between atoms: _468  and  _469
REMARK  202  A    between atoms: _471  and  _473
REMARK  203  A    between atoms: _473  and  _474
REMARK  204  A    between atoms: _473  and  _476
REMARK  205  A    between atoms: _476  and  _477
REMARK  206  A    between atoms: _480  and  _482
REMARK  207  A    between atoms: _482  and  _483
REMARK  208  A    between atoms: _482  and  _485
REMARK  209  A    between atoms: _485  and  _486
REMARK  210  A    between atoms: _486  and  _487
REMARK  211  A    between atoms: _487  and  _488
REMARK  212  A    between atoms: _488  and  _489
REMARK  213  A    between atoms: _493  and  _495
REMARK  214  A    between atoms: _495  and  _496
REMARK  215  A    between atoms: _495  and  _498
REMARK                            x       y       z     vdW  Elec       q    Type
REMARK                         _______ _______ _______ _____ _____    ______ ____
ROOT
ATOM      1  O   HOH     1       1.284   8.979   4.998  0.00  0.00    +0.000 OA
ENDROOT
TORSDOF 0
REMARK  Name = ../refined-set-2016/4b7p/4b7p_pocket.pdb
REMARK  215 active torsions:
REMARK  status: ('A' for Active; 'I' for Inactive)
REMARK    1  A    between atoms: _1  and  _3
REMARK    2  A    between atoms: _3  and  _4
REMARK    3  A    between atoms: _3  and  _6
REMARK    4  A    between atoms: _6  and  _7
REMARK    5  A    between atoms: _10  and  _12
REMARK    6  A    between atoms: _12  and  _13
REMARK    7  A    between atoms: _12  and  _15
REMARK    8  A    between atoms: _15  and  _16
REMARK    9  A    between atoms: _22  and  _24
REMARK   10  A    between atoms: _24  and  _25
REMARK   11  A    between atoms: _24  and  _27
REMARK   12  A    between atoms: _27  and  _28
REMARK   13  A    between atoms: _31  and  _33
REMARK   14  A    between atoms: _33  and  _34
REMARK   15  A    between atoms: _33  and  _36
REMARK   16  A    between atoms: _36  and  _37
REMARK   17  A    between atoms: _37  and  _38
REMARK   18  A    between atoms: _41  and  _43
REMARK   19  A    between atoms: _43  and  _44
REMARK   20  A    between atoms: _43  and  _46
REMARK   21  A    between atoms: _46  and  _47
REMARK   22  A    between atoms: _50  and  _52
REMARK   23  A    between atoms: _52  and  _53
REMARK   24  A    between atoms: _52  and  _55
REMARK   25  A    between atoms: _55  and  _56
REMARK   26  A    between atoms: _59  and  _61
REMARK   27  A    between atoms: _61  and  _62
REMARK   28  A    between atoms: _61  and  _64
REMARK   29  A    between atoms: _64  and  _65
REMARK   30  A    between atoms: _67  and  _69
REMARK   31  A    between atoms: _69  and  _70
REMARK   32  A    between atoms: _69  and  _72
REMARK   33  A    between atoms: _72  and  _73
REMARK   34  A    between atoms: _78  and  _80
REMARK   35  A    between atoms: _80  and  _81
REMARK   36  A    between atoms: _80  and  _83
REMARK   37  A    between atoms: _83  and  _84
REMARK   38  A    between atoms: _86  and  _88
REMARK   39  A    between atoms: _88  and  _89
REMARK   40  A    between atoms: _88  and  _91
REMARK   41  A    between atoms: _91  and  _92
REMARK   42  A    between atoms: _94  and  _96
REMARK   43  A    between atoms: _96  and  _97
REMARK   44  A    between atoms: _96  and  _99
REMARK   45  A    between atoms: _99  and  _100
REMARK   46  A    between atoms: _103  and  _105
REMARK   47  A    between atoms: _105  and  _106
REMARK   48  A    between atoms: _109  and  _111
REMARK   49  A    between atoms: _111  and  _112
REMARK   50  A    between atoms: _111  and  _114
REMARK   51  A    between atoms: _114  and  _115
REMARK   52  A    between atoms: _118  and  _120
REMARK   53  A    between atoms: _120  and  _121
REMARK   54  A    between atoms: _120  and  _123
REMARK   55  A    between atoms: _123  and  _124
REMARK   56  A    between atoms: _127  and  _129
REMARK   57  A    between atoms: _129  and  _130
REMARK   58  A    between atoms: _129  and  _132
REMARK   59  A    between atoms: _132  and  _133
REMARK   60  A    between atoms: _133  and  _134
REMARK   61  A    between atoms: _134  and  _135
REMARK   62  A    between atoms: _135  and  _136
REMARK   63  A    between atoms: _140  and  _142
REMARK   64  A    between atoms: _142  and  _143
REMARK   65  A    between atoms: _142  and  _145
REMARK   66  A    between atoms: _145  and  _146
REMARK   67  A    between atoms: _149  and  _151
REMARK   68  A    between atoms: _151  and  _152
REMARK   69  A    between atoms: _151  and  _154
REMARK   70  A    between atoms: _154  and  _155
REMARK   71  A    between atoms: _155  and  _156
REMARK   72  A    between atoms: _159  and  _161
REMARK   73  A    between atoms: _161  and  _162
REMARK   74  A    between atoms: _161  and  _164
REMARK   75  A    between atoms: _164  and  _165
REMARK   76  A    between atoms: _168  and  _170
REMARK   77  A    between atoms: _170  and  _171
REMARK   78  A    between atoms: _170  and  _173
REMARK   79  A    between atoms: _176  and  _178
REMARK   80  A    between atoms: _178  and  _179
REMARK   81  A    between atoms: _178  and  _181
REMARK   82  A    between atoms: _181  and  _182
REMARK   83  A    between atoms: _185  and  _187
REMARK   84  A    between atoms: _187  and  _188
REMARK   85  A    between atoms: _187  and  _190
REMARK   86  A    between atoms: _190  and  _191
REMARK   87  A    between atoms: _194  and  _196
REMARK   88  A    between atoms: _196  and  _197
REMARK   89  A    between atoms: _199  and  _201
REMARK   90  A    between atoms: _201  and  _202
REMARK   91  A    between atoms: _201  and  _204
REMARK   92  A    between atoms: _204  and  _205
REMARK   93  A    between atoms: _208  and  _210
REMARK   94  A    between atoms: _210  and  _211
REMARK   95  A    between atoms: _213  and  _215
REMARK   96  A    between atoms: _215  and  _216
REMARK   97  A    between atoms: _215  and  _218
REMARK   98  A    between atoms: _218  and  _219
REMARK   99  A    between atoms: _219  and  _220
REMARK  100  A    between atoms: _222  and  _224
REMARK  101  A    between atoms: _224  and  _225
REMARK  102  A    between atoms: _224  and  _227
REMARK  103  A    between atoms: _227  and  _228
REMARK  104  A    between atoms: _231  and  _233
REMARK  105  A    between atoms: _233  and  _234
REMARK  106  A    between atoms: _237  and  _239
REMARK  107  A    between atoms: _239  and  _240
REMARK  108  A    between atoms: _239  and  _242
REMARK  109  A    between atoms: _242  and  _243
REMARK  110  A    between atoms: _246  and  _248
REMARK  111  A    between atoms: _248  and  _249
REMARK  112  A    between atoms: _248  and  _251
REMARK  113  A    between atoms: _251  and  _252
REMARK  114  A    between atoms: _255  and  _257
REMARK  115  A    between atoms: _257  and  _258
REMARK  116  A    between atoms: _257  and  _260
REMARK  117  A    between atoms: _260  and  _261
REMARK  118  A    between atoms: _266  and  _268
REMARK  119  A    between atoms: _268  and  _269
REMARK  120  A    between atoms: _268  and  _271
REMARK  121  A    between atoms: _271  and  _272
REMARK  122  A    between atoms: _277  and  _279
REMARK  123  A    between atoms: _279  and  _280
REMARK  124  A    between atoms: _279  and  _282
REMARK  125  A    between atoms: _282  and  _283
REMARK  126  A    between atoms: _286  and  _288
REMARK  127  A    between atoms: _288  and  _289
REMARK  128  A    between atoms: _291  and  _293
REMARK  129  A    between atoms: _293  and  _294
REMARK  130  A    between atoms: _293  and  _296
REMARK  131  A    between atoms: _296  and  _297
REMARK  132  A    between atoms: _300  and  _302
REMARK  133  A    between atoms: _302  and  _303
REMARK  134  A    between atoms: _302  and  _305
REMARK  135  A    between atoms: _305  and  _306
REMARK  136  A    between atoms: _306  and  _307
REMARK  137  A    between atoms: _307  and  _308
REMARK  138  A    between atoms: _308  and  _309
REMARK  139  A    between atoms: _313  and  _315
REMARK  140  A    between atoms: _315  and  _316
REMARK  141  A    between atoms: _318  and  _320
REMARK  142  A    between atoms: _320  and  _321
REMARK  143  A    between atoms: _320  and  _323
REMARK  144  A    between atoms: _323  and  _324
REMARK  145  A    between atoms: _330  and  _332
REMARK  146  A    between atoms: _332  and  _333
REMARK  147  A    between atoms: _335  and  _337
REMARK  148  A    between atoms: _337  and  _338
REMARK  149  A    between atoms: _337  and  _340
REMARK  150  A    between atoms: _343  and  _345
REMARK  151  A    between atoms: _345  and  _346
REMARK  152  A    between atoms: _348  and  _350
REMARK  153  A    between atoms: _350  and  _351
REMARK  154  A    between atoms: _350  and  _353
REMARK  155  A    between atoms: _353  and  _354
REMARK  156  A    between atoms: _360  and  _362
REMARK  157  A    between atoms: _362  and  _363
REMARK  158  A    between atoms: _362  and  _365
REMARK  159  A    between atoms: _365  and  _366
REMARK  160  A    between atoms: _371  and  _372
REMARK  161  A    between atoms: _374  and  _376
REMARK  162  A    between atoms: _376  and  _377
REMARK  163  A    between atoms: _376  and  _379
REMARK  164  A    between atoms: _379  and  _380
REMARK  165  A    between atoms: _382  and  _384
REMARK  166  A    between atoms: _384  and  _385
REMARK  167  A    between atoms: _388  and  _390
REMARK  168  A    between atoms: _390  and  _391
REMARK  169  A    between atoms: _390  and  _393
REMARK  170  A    between atoms: _396  and  _398
REMARK  171  A    between atoms: _398  and  _399
REMARK  172  A    between atoms: _398  and  _401
REMARK  173  A    between atoms: _404  and  _406
REMARK  174  A    between atoms: _406  and  _407
REMARK  175  A    between atoms: _406  and  _409
REMARK  176  A    between atoms: _409  and  _410
REMARK  177  A    between atoms: _413  and  _415
REMARK  178  A    between atoms: _415  and  _416
REMARK  179  A    between atoms: _415  and  _418
REMARK  180  A    between atoms: _418  and  _419
REMARK  181  A    between atoms: _422  and  _424
REMARK  182  A    between atoms: _424  and  _425
REMARK  183  A    between atoms: _424  and  _427
REMARK  184  A    between atoms: _427  and  _428
REMARK  185  A    between atoms: _428  and  _429
REMARK  186  A    between atoms: _429  and  _430
REMARK  187  A    between atoms: _430  and  _431
REMARK  188  A    between atoms: _435  and  _437
REMARK  189  A    between atoms: _437  and  _438
REMARK  190  A    between atoms: _437  and  _440
REMARK  191  A    between atoms: _440  and  _441
REMARK  192  A    between atoms: _446  and  _448
REMARK  193  A    between atoms: _448  and  _449
REMARK  194  A    between atoms: _448  and  _451
REMARK  195  A    between atoms: _451  and  _452
REMARK  196  A    between atoms: _457  and  _459
REMARK  197  A    between atoms: _459  and  _460
REMARK  198  A    between atoms: _459  and  _462
REMARK  199  A    between atoms: _462  and  _463
REMARK  200  A    between atoms: _466  and  _468
REMARK  201  A    between atoms: _468  and  _469
REMARK  202  A    between atoms: _471  and  _473
REMARK  203  A    between atoms: _473  and  _474
REMARK  204  A    between atoms: _473  and  _476
REMARK  205  A    between atoms: _476  and  _477
REMARK  206  A    between atoms: _480  and  _482
REMARK  207  A    between atoms: _482  and  _483
REMARK  208  A    between atoms: _482  and  _485
REMARK  209  A    between atoms: _485  and  _486
REMARK  210  A    between atoms: _486  and  _487
REMARK  211  A    between atoms: _487  and  _488
REMARK  212  A    between atoms: _488  and  _489
REMARK  213  A    between atoms: _493  and  _495
REMARK  214  A    between atoms: _495  and  _496
REMARK  215  A    between atoms: _495  and  _498
REMARK                            x       y       z     vdW  Elec       q    Type
REMARK                         _______ _______ _______ _____ _____    ______ ____
ROOT
ATOM      1  O   HOH     1       2.182   5.958   8.099  0.00  0.00    +0.000 OA
ENDROOT
TORSDOF 0
REMARK  Name = ../refined-set-2016/4b7p/4b7p_pocket.pdb
REMARK  215 active torsions:
REMARK  status: ('A' for Active; 'I' for Inactive)
REMARK    1  A    between atoms: _1  and  _3
REMARK    2  A    between atoms: _3  and  _4
REMARK    3  A    between atoms: _3  and  _6
REMARK    4  A    between atoms: _6  and  _7
REMARK    5  A    between atoms: _10  and  _12
REMARK    6  A    between atoms: _12  and  _13
REMARK    7  A    between atoms: _12  and  _15
REMARK    8  A    between atoms: _15  and  _16
REMARK    9  A    between atoms: _22  and  _24
REMARK   10  A    between atoms: _24  and  _25
REMARK   11  A    between atoms: _24  and  _27
REMARK   12  A    between atoms: _27  and  _28
REMARK   13  A    between atoms: _31  and  _33
REMARK   14  A    between atoms: _33  and  _34
REMARK   15  A    between atoms: _33  and  _36
REMARK   16  A    between atoms: _36  and  _37
REMARK   17  A    between atoms: _37  and  _38
REMARK   18  A    between atoms: _41  and  _43
REMARK   19  A    between atoms: _43  and  _44
REMARK   20  A    between atoms: _43  and  _46
REMARK   21  A    between atoms: _46  and  _47
REMARK   22  A    between atoms: _50  and  _52
REMARK   23  A    between atoms: _52  and  _53
REMARK   24  A    between atoms: _52  and  _55
REMARK   25  A    between atoms: _55  and  _56
REMARK   26  A    between atoms: _59  and  _61
REMARK   27  A    between atoms: _61  and  _62
REMARK   28  A    between atoms: _61  and  _64
REMARK   29  A    between atoms: _64  and  _65
REMARK   30  A    between atoms: _67  and  _69
REMARK   31  A    between atoms: _69  and  _70
REMARK   32  A    between atoms: _69  and  _72
REMARK   33  A    between atoms: _72  and  _73
REMARK   34  A    between atoms: _78  and  _80
REMARK   35  A    between atoms: _80  and  _81
REMARK   36  A    between atoms: _80  and  _83
REMARK   37  A    between atoms: _83  and  _84
REMARK   38  A    between atoms: _86  and  _88
REMARK   39  A    between atoms: _88  and  _89
REMARK   40  A    between atoms: _88  and  _91
REMARK   41  A    between atoms: _91  and  _92
REMARK   42  A    between atoms: _94  and  _96
REMARK   43  A    between atoms: _96  and  _97
REMARK   44  A    between atoms: _96  and  _99
REMARK   45  A    between atoms: _99  and  _100
REMARK   46  A    between atoms: _103  and  _105
REMARK   47  A    between atoms: _105  and  _106
REMARK   48  A    between atoms: _109  and  _111
REMARK   49  A    between atoms: _111  and  _112
REMARK   50  A    between atoms: _111  and  _114
REMARK   51  A    between atoms: _114  and  _115
REMARK   52  A    between atoms: _118  and  _120
REMARK   53  A    between atoms: _120  and  _121
REMARK   54  A    between atoms: _120  and  _123
REMARK   55  A    between atoms: _123  and  _124
REMARK   56  A    between atoms: _127  and  _129
REMARK   57  A    between atoms: _129  and  _130
REMARK   58  A    between atoms: _129  and  _132
REMARK   59  A    between atoms: _132  and  _133
REMARK   60  A    between atoms: _133  and  _134
REMARK   61  A    between atoms: _134  and  _135
REMARK   62  A    between atoms: _135  and  _136
REMARK   63  A    between atoms: _140  and  _142
REMARK   64  A    between atoms: _142  and  _143
REMARK   65  A    between atoms: _142  and  _145
REMARK   66  A    between atoms: _145  and  _146
REMARK   67  A    between atoms: _149  and  _151
REMARK   68  A    between atoms: _151  and  _152
REMARK   69  A    between atoms: _151  and  _154
REMARK   70  A    between atoms: _154  and  _155
REMARK   71  A    between atoms: _155  and  _156
REMARK   72  A    between atoms: _159  and  _161
REMARK   73  A    between atoms: _161  and  _162
REMARK   74  A    between atoms: _161  and  _164
REMARK   75  A    between atoms: _164  and  _165
REMARK   76  A    between atoms: _168  and  _170
REMARK   77  A    between atoms: _170  and  _171
REMARK   78  A    between atoms: _170  and  _173
REMARK   79  A    between atoms: _176  and  _178
REMARK   80  A    between atoms: _178  and  _179
REMARK   81  A    between atoms: _178  and  _181
REMARK   82  A    between atoms: _181  and  _182
REMARK   83  A    between atoms: _185  and  _187
REMARK   84  A    between atoms: _187  and  _188
REMARK   85  A    between atoms: _187  and  _190
REMARK   86  A    between atoms: _190  and  _191
REMARK   87  A    between atoms: _194  and  _196
REMARK   88  A    between atoms: _196  and  _197
REMARK   89  A    between atoms: _199  and  _201
REMARK   90  A    between atoms: _201  and  _202
REMARK   91  A    between atoms: _201  and  _204
REMARK   92  A    between atoms: _204  and  _205
REMARK   93  A    between atoms: _208  and  _210
REMARK   94  A    between atoms: _210  and  _211
REMARK   95  A    between atoms: _213  and  _215
REMARK   96  A    between atoms: _215  and  _216
REMARK   97  A    between atoms: _215  and  _218
REMARK   98  A    between atoms: _218  and  _219
REMARK   99  A    between atoms: _219  and  _220
REMARK  100  A    between atoms: _222  and  _224
REMARK  101  A    between atoms: _224  and  _225
REMARK  102  A    between atoms: _224  and  _227
REMARK  103  A    between atoms: _227  and  _228
REMARK  104  A    between atoms: _231  and  _233
REMARK  105  A    between atoms: _233  and  _234
REMARK  106  A    between atoms: _237  and  _239
REMARK  107  A    between atoms: _239  and  _240
REMARK  108  A    between atoms: _239  and  _242
REMARK  109  A    between atoms: _242  and  _243
REMARK  110  A    between atoms: _246  and  _248
REMARK  111  A    between atoms: _248  and  _249
REMARK  112  A    between atoms: _248  and  _251
REMARK  113  A    between atoms: _251  and  _252
REMARK  114  A    between atoms: _255  and  _257
REMARK  115  A    between atoms: _257  and  _258
REMARK  116  A    between atoms: _257  and  _260
REMARK  117  A    between atoms: _260  and  _261
REMARK  118  A    between atoms: _266  and  _268
REMARK  119  A    between atoms: _268  and  _269
REMARK  120  A    between atoms: _268  and  _271
REMARK  121  A    between atoms: _271  and  _272
REMARK  122  A    between atoms: _277  and  _279
REMARK  123  A    between atoms: _279  and  _280
REMARK  124  A    between atoms: _279  and  _282
REMARK  125  A    between atoms: _282  and  _283
REMARK  126  A    between atoms: _286  and  _288
REMARK  127  A    between atoms: _288  and  _289
REMARK  128  A    between atoms: _291  and  _293
REMARK  129  A    between atoms: _293  and  _294
REMARK  130  A    between atoms: _293  and  _296
REMARK  131  A    between atoms: _296  and  _297
REMARK  132  A    between atoms: _300  and  _302
REMARK  133  A    between atoms: _302  and  _303
REMARK  134  A    between atoms: _302  and  _305
REMARK  135  A    between atoms: _305  and  _306
REMARK  136  A    between atoms: _306  and  _307
REMARK  137  A    between atoms: _307  and  _308
REMARK  138  A    between atoms: _308  and  _309
REMARK  139  A    between atoms: _313  and  _315
REMARK  140  A    between atoms: _315  and  _316
REMARK  141  A    between atoms: _318  and  _320
REMARK  142  A    between atoms: _320  and  _321
REMARK  143  A    between atoms: _320  and  _323
REMARK  144  A    between atoms: _323  and  _324
REMARK  145  A    between atoms: _330  and  _332
REMARK  146  A    between atoms: _332  and  _333
REMARK  147  A    between atoms: _335  and  _337
REMARK  148  A    between atoms: _337  and  _338
REMARK  149  A    between atoms: _337  and  _340
REMARK  150  A    between atoms: _343  and  _345
REMARK  151  A    between atoms: _345  and  _346
REMARK  152  A    between atoms: _348  and  _350
REMARK  153  A    between atoms: _350  and  _351
REMARK  154  A    between atoms: _350  and  _353
REMARK  155  A    between atoms: _353  and  _354
REMARK  156  A    between atoms: _360  and  _362
REMARK  157  A    between atoms: _362  and  _363
REMARK  158  A    between atoms: _362  and  _365
REMARK  159  A    between atoms: _365  and  _366
REMARK  160  A    between atoms: _371  and  _372
REMARK  161  A    between atoms: _374  and  _376
REMARK  162  A    between atoms: _376  and  _377
REMARK  163  A    between atoms: _376  and  _379
REMARK  164  A    between atoms: _379  and  _380
REMARK  165  A    between atoms: _382  and  _384
REMARK  166  A    between atoms: _384  and  _385
REMARK  167  A    between atoms: _388  and  _390
REMARK  168  A    between atoms: _390  and  _391
REMARK  169  A    between atoms: _390  and  _393
REMARK  170  A    between atoms: _396  and  _398
REMARK  171  A    between atoms: _398  and  _399
REMARK  172  A    between atoms: _398  and  _401
REMARK  173  A    between atoms: _404  and  _406
REMARK  174  A    between atoms: _406  and  _407
REMARK  175  A    between atoms: _406  and  _409
REMARK  176  A    between atoms: _409  and  _410
REMARK  177  A    between atoms: _413  and  _415
REMARK  178  A    between atoms: _415  and  _416
REMARK  179  A    between atoms: _415  and  _418
REMARK  180  A    between atoms: _418  and  _419
REMARK  181  A    between atoms: _422  and  _424
REMARK  182  A    between atoms: _424  and  _425
REMARK  183  A    between atoms: _424  and  _427
REMARK  184  A    between atoms: _427  and  _428
REMARK  185  A    between atoms: _428  and  _429
REMARK  186  A    between atoms: _429  and  _430
REMARK  187  A    between atoms: _430  and  _431
REMARK  188  A    between atoms: _435  and  _437
REMARK  189  A    between atoms: _437  and  _438
REMARK  190  A    between atoms: _437  and  _440
REMARK  191  A    between atoms: _440  and  _441
REMARK  192  A    between atoms: _446  and  _448
REMARK  193  A    between atoms: _448  and  _449
REMARK  194  A    between atoms: _448  and  _451
REMARK  195  A    between atoms: _451  and  _452
REMARK  196  A    between atoms: _457  and  _459
REMARK  197  A    between atoms: _459  and  _460
REMARK  198  A    between atoms: _459  and  _462
REMARK  199  A    between atoms: _462  and  _463
REMARK  200  A    between atoms: _466  and  _468
REMARK  201  A    between atoms: _468  and  _469
REMARK  202  A    between atoms: _471  and  _473
REMARK  203  A    between atoms: _473  and  _474
REMARK  204  A    between atoms: _473  and  _476
REMARK  205  A    between atoms: _476  and  _477
REMARK  206  A    between atoms: _480  and  _482
REMARK  207  A    between atoms: _482  and  _483
REMARK  208  A    between atoms: _482  and  _485
REMARK  209  A    between atoms: _485  and  _486
REMARK  210  A    between atoms: _486  and  _487
REMARK  211  A    between atoms: _487  and  _488
REMARK  212  A    between atoms: _488  and  _489
REMARK  213  A    between atoms: _493  and  _495
REMARK  214  A    between atoms: _495  and  _496
REMARK  215  A    between atoms: _495  and  _498
REMARK                            x       y       z     vdW  Elec       q    Type
REMARK                         _______ _______ _______ _____ _____    ______ ____
ROOT
ATOM      1  O   HOH     1      -1.621   4.785   5.401  0.00  0.00    +0.000 OA
ENDROOT
TORSDOF 0
REMARK  Name = ../refined-set-2016/4b7p/4b7p_pocket.pdb
REMARK  215 active torsions:
REMARK  status: ('A' for Active; 'I' for Inactive)
REMARK    1  A    between atoms: _1  and  _3
REMARK    2  A    between atoms: _3  and  _4
REMARK    3  A    between atoms: _3  and  _6
REMARK    4  A    between atoms: _6  and  _7
REMARK    5  A    between atoms: _10  and  _12
REMARK    6  A    between atoms: _12  and  _13
REMARK    7  A    between atoms: _12  and  _15
REMARK    8  A    between atoms: _15  and  _16
REMARK    9  A    between atoms: _22  and  _24
REMARK   10  A    between atoms: _24  and  _25
REMARK   11  A    between atoms: _24  and  _27
REMARK   12  A    between atoms: _27  and  _28
REMARK   13  A    between atoms: _31  and  _33
REMARK   14  A    between atoms: _33  and  _34
REMARK   15  A    between atoms: _33  and  _36
REMARK   16  A    between atoms: _36  and  _37
REMARK   17  A    between atoms: _37  and  _38
REMARK   18  A    between atoms: _41  and  _43
REMARK   19  A    between atoms: _43  and  _44
REMARK   20  A    between atoms: _43  and  _46
REMARK   21  A    between atoms: _46  and  _47
REMARK   22  A    between atoms: _50  and  _52
REMARK   23  A    between atoms: _52  and  _53
REMARK   24  A    between atoms: _52  and  _55
REMARK   25  A    between atoms: _55  and  _56
REMARK   26  A    between atoms: _59  and  _61
REMARK   27  A    between atoms: _61  and  _62
REMARK   28  A    between atoms: _61  and  _64
REMARK   29  A    between atoms: _64  and  _65
REMARK   30  A    between atoms: _67  and  _69
REMARK   31  A    between atoms: _69  and  _70
REMARK   32  A    between atoms: _69  and  _72
REMARK   33  A    between atoms: _72  and  _73
REMARK   34  A    between atoms: _78  and  _80
REMARK   35  A    between atoms: _80  and  _81
REMARK   36  A    between atoms: _80  and  _83
REMARK   37  A    between atoms: _83  and  _84
REMARK   38  A    between atoms: _86  and  _88
REMARK   39  A    between atoms: _88  and  _89
REMARK   40  A    between atoms: _88  and  _91
REMARK   41  A    between atoms: _91  and  _92
REMARK   42  A    between atoms: _94  and  _96
REMARK   43  A    between atoms: _96  and  _97
REMARK   44  A    between atoms: _96  and  _99
REMARK   45  A    between atoms: _99  and  _100
REMARK   46  A    between atoms: _103  and  _105
REMARK   47  A    between atoms: _105  and  _106
REMARK   48  A    between atoms: _109  and  _111
REMARK   49  A    between atoms: _111  and  _112
REMARK   50  A    between atoms: _111  and  _114
REMARK   51  A    between atoms: _114  and  _115
REMARK   52  A    between atoms: _118  and  _120
REMARK   53  A    between atoms: _120  and  _121
REMARK   54  A    between atoms: _120  and  _123
REMARK   55  A    between atoms: _123  and  _124
REMARK   56  A    between atoms: _127  and  _129
REMARK   57  A    between atoms: _129  and  _130
REMARK   58  A    between atoms: _129  and  _132
REMARK   59  A    between atoms: _132  and  _133
REMARK   60  A    between atoms: _133  and  _134
REMARK   61  A    between atoms: _134  and  _135
REMARK   62  A    between atoms: _135  and  _136
REMARK   63  A    between atoms: _140  and  _142
REMARK   64  A    between atoms: _142  and  _143
REMARK   65  A    between atoms: _142  and  _145
REMARK   66  A    between atoms: _145  and  _146
REMARK   67  A    between atoms: _149  and  _151
REMARK   68  A    between atoms: _151  and  _152
REMARK   69  A    between atoms: _151  and  _154
REMARK   70  A    between atoms: _154  and  _155
REMARK   71  A    between atoms: _155  and  _156
REMARK   72  A    between atoms: _159  and  _161
REMARK   73  A    between atoms: _161  and  _162
REMARK   74  A    between atoms: _161  and  _164
REMARK   75  A    between atoms: _164  and  _165
REMARK   76  A    between atoms: _168  and  _170
REMARK   77  A    between atoms: _170  and  _171
REMARK   78  A    between atoms: _170  and  _173
REMARK   79  A    between atoms: _176  and  _178
REMARK   80  A    between atoms: _178  and  _179
REMARK   81  A    between atoms: _178  and  _181
REMARK   82  A    between atoms: _181  and  _182
REMARK   83  A    between atoms: _185  and  _187
REMARK   84  A    between atoms: _187  and  _188
REMARK   85  A    between atoms: _187  and  _190
REMARK   86  A    between atoms: _190  and  _191
REMARK   87  A    between atoms: _194  and  _196
REMARK   88  A    between atoms: _196  and  _197
REMARK   89  A    between atoms: _199  and  _201
REMARK   90  A    between atoms: _201  and  _202
REMARK   91  A    between atoms: _201  and  _204
REMARK   92  A    between atoms: _204  and  _205
REMARK   93  A    between atoms: _208  and  _210
REMARK   94  A    between atoms: _210  and  _211
REMARK   95  A    between atoms: _213  and  _215
REMARK   96  A    between atoms: _215  and  _216
REMARK   97  A    between atoms: _215  and  _218
REMARK   98  A    between atoms: _218  and  _219
REMARK   99  A    between atoms: _219  and  _220
REMARK  100  A    between atoms: _222  and  _224
REMARK  101  A    between atoms: _224  and  _225
REMARK  102  A    between atoms: _224  and  _227
REMARK  103  A    between atoms: _227  and  _228
REMARK  104  A    between atoms: _231  and  _233
REMARK  105  A    between atoms: _233  and  _234
REMARK  106  A    between atoms: _237  and  _239
REMARK  107  A    between atoms: _239  and  _240
REMARK  108  A    between atoms: _239  and  _242
REMARK  109  A    between atoms: _242  and  _243
REMARK  110  A    between atoms: _246  and  _248
REMARK  111  A    between atoms: _248  and  _249
REMARK  112  A    between atoms: _248  and  _251
REMARK  113  A    between atoms: _251  and  _252
REMARK  114  A    between atoms: _255  and  _257
REMARK  115  A    between atoms: _257  and  _258
REMARK  116  A    between atoms: _257  and  _260
REMARK  117  A    between atoms: _260  and  _261
REMARK  118  A    between atoms: _266  and  _268
REMARK  119  A    between atoms: _268  and  _269
REMARK  120  A    between atoms: _268  and  _271
REMARK  121  A    between atoms: _271  and  _272
REMARK  122  A    between atoms: _277  and  _279
REMARK  123  A    between atoms: _279  and  _280
REMARK  124  A    between atoms: _279  and  _282
REMARK  125  A    between atoms: _282  and  _283
REMARK  126  A    between atoms: _286  and  _288
REMARK  127  A    between atoms: _288  and  _289
REMARK  128  A    between atoms: _291  and  _293
REMARK  129  A    between atoms: _293  and  _294
REMARK  130  A    between atoms: _293  and  _296
REMARK  131  A    between atoms: _296  and  _297
REMARK  132  A    between atoms: _300  and  _302
REMARK  133  A    between atoms: _302  and  _303
REMARK  134  A    between atoms: _302  and  _305
REMARK  135  A    between atoms: _305  and  _306
REMARK  136  A    between atoms: _306  and  _307
REMARK  137  A    between atoms: _307  and  _308
REMARK  138  A    between atoms: _308  and  _309
REMARK  139  A    between atoms: _313  and  _315
REMARK  140  A    between atoms: _315  and  _316
REMARK  141  A    between atoms: _318  and  _320
REMARK  142  A    between atoms: _320  and  _321
REMARK  143  A    between atoms: _320  and  _323
REMARK  144  A    between atoms: _323  and  _324
REMARK  145  A    between atoms: _330  and  _332
REMARK  146  A    between atoms: _332  and  _333
REMARK  147  A    between atoms: _335  and  _337
REMARK  148  A    between atoms: _337  and  _338
REMARK  149  A    between atoms: _337  and  _340
REMARK  150  A    between atoms: _343  and  _345
REMARK  151  A    between atoms: _345  and  _346
REMARK  152  A    between atoms: _348  and  _350
REMARK  153  A    between atoms: _350  and  _351
REMARK  154  A    between atoms: _350  and  _353
REMARK  155  A    between atoms: _353  and  _354
REMARK  156  A    between atoms: _360  and  _362
REMARK  157  A    between atoms: _362  and  _363
REMARK  158  A    between atoms: _362  and  _365
REMARK  159  A    between atoms: _365  and  _366
REMARK  160  A    between atoms: _371  and  _372
REMARK  161  A    between atoms: _374  and  _376
REMARK  162  A    between atoms: _376  and  _377
REMARK  163  A    between atoms: _376  and  _379
REMARK  164  A    between atoms: _379  and  _380
REMARK  165  A    between atoms: _382  and  _384
REMARK  166  A    between atoms: _384  and  _385
REMARK  167  A    between atoms: _388  and  _390
REMARK  168  A    between atoms: _390  and  _391
REMARK  169  A    between atoms: _390  and  _393
REMARK  170  A    between atoms: _396  and  _398
REMARK  171  A    between atoms: _398  and  _399
REMARK  172  A    between atoms: _398  and  _401
REMARK  173  A    between atoms: _404  and  _406
REMARK  174  A    between atoms: _406  and  _407
REMARK  175  A    between atoms: _406  and  _409
REMARK  176  A    between atoms: _409  and  _410
REMARK  177  A    between atoms: _413  and  _415
REMARK  178  A    between atoms: _415  and  _416
REMARK  179  A    between atoms: _415  and  _418
REMARK  180  A    between atoms: _418  and  _419
REMARK  181  A    between atoms: _422  and  _424
REMARK  182  A    between atoms: _424  and  _425
REMARK  183  A    between atoms: _424  and  _427
REMARK  184  A    between atoms: _427  and  _428
REMARK  185  A    between atoms: _428  and  _429
REMARK  186  A    between atoms: _429  and  _430
REMARK  187  A    between atoms: _430  and  _431
REMARK  188  A    between atoms: _435  and  _437
REMARK  189  A    between atoms: _437  and  _438
REMARK  190  A    between atoms: _437  and  _440
REMARK  191  A    between atoms: _440  and  _441
REMARK  192  A    between atoms: _446  and  _448
REMARK  193  A    between atoms: _448  and  _449
REMARK  194  A    between atoms: _448  and  _451
REMARK  195  A    between atoms: _451  and  _452
REMARK  196  A    between atoms: _457  and  _459
REMARK  197  A    between atoms: _459  and  _460
REMARK  198  A    between atoms: _459  and  _462
REMARK  199  A    between atoms: _462  and  _463
REMARK  200  A    between atoms: _466  and  _468
REMARK  201  A    between atoms: _468  and  _469
REMARK  202  A    between atoms: _471  and  _473
REMARK  203  A    between atoms: _473  and  _474
REMARK  204  A    between atoms: _473  and  _476
REMARK  205  A    between atoms: _476  and  _477
REMARK  206  A    between atoms: _480  and  _482
REMARK  207  A    between atoms: _482  and  _483
REMARK  208  A    between atoms: _482  and  _485
REMARK  209  A    between atoms: _485  and  _486
REMARK  210  A    between atoms: _486  and  _487
REMARK  211  A    between atoms: _487  and  _488
REMARK  212  A    between atoms: _488  and  _489
REMARK  213  A    between atoms: _493  and  _495
REMARK  214  A    between atoms: _495  and  _496
REMARK  215  A    between atoms: _495  and  _498
REMARK                            x       y       z     vdW  Elec       q    Type
REMARK                         _______ _______ _______ _____ _____    ______ ____
ROOT
ATOM      1  O   HOH     1      -3.119  12.018  16.681  0.00  0.00    +0.000 OA
ENDROOT
TORSDOF 0
REMARK  Name = ../refined-set-2016/4b7p/4b7p_pocket.pdb
REMARK  215 active torsions:
REMARK  status: ('A' for Active; 'I' for Inactive)
REMARK    1  A    between atoms: _1  and  _3
REMARK    2  A    between atoms: _3  and  _4
REMARK    3  A    between atoms: _3  and  _6
REMARK    4  A    between atoms: _6  and  _7
REMARK    5  A    between atoms: _10  and  _12
REMARK    6  A    between atoms: _12  and  _13
REMARK    7  A    between atoms: _12  and  _15
REMARK    8  A    between atoms: _15  and  _16
REMARK    9  A    between atoms: _22  and  _24
REMARK   10  A    between atoms: _24  and  _25
REMARK   11  A    between atoms: _24  and  _27
REMARK   12  A    between atoms: _27  and  _28
REMARK   13  A    between atoms: _31  and  _33
REMARK   14  A    between atoms: _33  and  _34
REMARK   15  A    between atoms: _33  and  _36
REMARK   16  A    between atoms: _36  and  _37
REMARK   17  A    between atoms: _37  and  _38
REMARK   18  A    between atoms: _41  and  _43
REMARK   19  A    between atoms: _43  and  _44
REMARK   20  A    between atoms: _43  and  _46
REMARK   21  A    between atoms: _46  and  _47
REMARK   22  A    between atoms: _50  and  _52
REMARK   23  A    between atoms: _52  and  _53
REMARK   24  A    between atoms: _52  and  _55
REMARK   25  A    between atoms: _55  and  _56
REMARK   26  A    between atoms: _59  and  _61
REMARK   27  A    between atoms: _61  and  _62
REMARK   28  A    between atoms: _61  and  _64
REMARK   29  A    between atoms: _64  and  _65
REMARK   30  A    between atoms: _67  and  _69
REMARK   31  A    between atoms: _69  and  _70
REMARK   32  A    between atoms: _69  and  _72
REMARK   33  A    between atoms: _72  and  _73
REMARK   34  A    between atoms: _78  and  _80
REMARK   35  A    between atoms: _80  and  _81
REMARK   36  A    between atoms: _80  and  _83
REMARK   37  A    between atoms: _83  and  _84
REMARK   38  A    between atoms: _86  and  _88
REMARK   39  A    between atoms: _88  and  _89
REMARK   40  A    between atoms: _88  and  _91
REMARK   41  A    between atoms: _91  and  _92
REMARK   42  A    between atoms: _94  and  _96
REMARK   43  A    between atoms: _96  and  _97
REMARK   44  A    between atoms: _96  and  _99
REMARK   45  A    between atoms: _99  and  _100
REMARK   46  A    between atoms: _103  and  _105
REMARK   47  A    between atoms: _105  and  _106
REMARK   48  A    between atoms: _109  and  _111
REMARK   49  A    between atoms: _111  and  _112
REMARK   50  A    between atoms: _111  and  _114
REMARK   51  A    between atoms: _114  and  _115
REMARK   52  A    between atoms: _118  and  _120
REMARK   53  A    between atoms: _120  and  _121
REMARK   54  A    between atoms: _120  and  _123
REMARK   55  A    between atoms: _123  and  _124
REMARK   56  A    between atoms: _127  and  _129
REMARK   57  A    between atoms: _129  and  _130
REMARK   58  A    between atoms: _129  and  _132
REMARK   59  A    between atoms: _132  and  _133
REMARK   60  A    between atoms: _133  and  _134
REMARK   61  A    between atoms: _134  and  _135
REMARK   62  A    between atoms: _135  and  _136
REMARK   63  A    between atoms: _140  and  _142
REMARK   64  A    between atoms: _142  and  _143
REMARK   65  A    between atoms: _142  and  _145
REMARK   66  A    between atoms: _145  and  _146
REMARK   67  A    between atoms: _149  and  _151
REMARK   68  A    between atoms: _151  and  _152
REMARK   69  A    between atoms: _151  and  _154
REMARK   70  A    between atoms: _154  and  _155
REMARK   71  A    between atoms: _155  and  _156
REMARK   72  A    between atoms: _159  and  _161
REMARK   73  A    between atoms: _161  and  _162
REMARK   74  A    between atoms: _161  and  _164
REMARK   75  A    between atoms: _164  and  _165
REMARK   76  A    between atoms: _168  and  _170
REMARK   77  A    between atoms: _170  and  _171
REMARK   78  A    between atoms: _170  and  _173
REMARK   79  A    between atoms: _176  and  _178
REMARK   80  A    between atoms: _178  and  _179
REMARK   81  A    between atoms: _178  and  _181
REMARK   82  A    between atoms: _181  and  _182
REMARK   83  A    between atoms: _185  and  _187
REMARK   84  A    between atoms: _187  and  _188
REMARK   85  A    between atoms: _187  and  _190
REMARK   86  A    between atoms: _190  and  _191
REMARK   87  A    between atoms: _194  and  _196
REMARK   88  A    between atoms: _196  and  _197
REMARK   89  A    between atoms: _199  and  _201
REMARK   90  A    between atoms: _201  and  _202
REMARK   91  A    between atoms: _201  and  _204
REMARK   92  A    between atoms: _204  and  _205
REMARK   93  A    between atoms: _208  and  _210
REMARK   94  A    between atoms: _210  and  _211
REMARK   95  A    between atoms: _213  and  _215
REMARK   96  A    between atoms: _215  and  _216
REMARK   97  A    between atoms: _215  and  _218
REMARK   98  A    between atoms: _218  and  _219
REMARK   99  A    between atoms: _219  and  _220
REMARK  100  A    between atoms: _222  and  _224
REMARK  101  A    between atoms: _224  and  _225
REMARK  102  A    between atoms: _224  and  _227
REMARK  103  A    between atoms: _227  and  _228
REMARK  104  A    between atoms: _231  and  _233
REMARK  105  A    between atoms: _233  and  _234
REMARK  106  A    between atoms: _237  and  _239
REMARK  107  A    between atoms: _239  and  _240
REMARK  108  A    between atoms: _239  and  _242
REMARK  109  A    between atoms: _242  and  _243
REMARK  110  A    between atoms: _246  and  _248
REMARK  111  A    between atoms: _248  and  _249
REMARK  112  A    between atoms: _248  and  _251
REMARK  113  A    between atoms: _251  and  _252
REMARK  114  A    between atoms: _255  and  _257
REMARK  115  A    between atoms: _257  and  _258
REMARK  116  A    between atoms: _257  and  _260
REMARK  117  A    between atoms: _260  and  _261
REMARK  118  A    between atoms: _266  and  _268
REMARK  119  A    between atoms: _268  and  _269
REMARK  120  A    between atoms: _268  and  _271
REMARK  121  A    between atoms: _271  and  _272
REMARK  122  A    between atoms: _277  and  _279
REMARK  123  A    between atoms: _279  and  _280
REMARK  124  A    between atoms: _279  and  _282
REMARK  125  A    between atoms: _282  and  _283
REMARK  126  A    between atoms: _286  and  _288
REMARK  127  A    between atoms: _288  and  _289
REMARK  128  A    between atoms: _291  and  _293
REMARK  129  A    between atoms: _293  and  _294
REMARK  130  A    between atoms: _293  and  _296
REMARK  131  A    between atoms: _296  and  _297
REMARK  132  A    between atoms: _300  and  _302
REMARK  133  A    between atoms: _302  and  _303
REMARK  134  A    between atoms: _302  and  _305
REMARK  135  A    between atoms: _305  and  _306
REMARK  136  A    between atoms: _306  and  _307
REMARK  137  A    between atoms: _307  and  _308
REMARK  138  A    between atoms: _308  and  _309
REMARK  139  A    between atoms: _313  and  _315
REMARK  140  A    between atoms: _315  and  _316
REMARK  141  A    between atoms: _318  and  _320
REMARK  142  A    between atoms: _320  and  _321
REMARK  143  A    between atoms: _320  and  _323
REMARK  144  A    between atoms: _323  and  _324
REMARK  145  A    between atoms: _330  and  _332
REMARK  146  A    between atoms: _332  and  _333
REMARK  147  A    between atoms: _335  and  _337
REMARK  148  A    between atoms: _337  and  _338
REMARK  149  A    between atoms: _337  and  _340
REMARK  150  A    between atoms: _343  and  _345
REMARK  151  A    between atoms: _345  and  _346
REMARK  152  A    between atoms: _348  and  _350
REMARK  153  A    between atoms: _350  and  _351
REMARK  154  A    between atoms: _350  and  _353
REMARK  155  A    between atoms: _353  and  _354
REMARK  156  A    between atoms: _360  and  _362
REMARK  157  A    between atoms: _362  and  _363
REMARK  158  A    between atoms: _362  and  _365
REMARK  159  A    between atoms: _365  and  _366
REMARK  160  A    between atoms: _371  and  _372
REMARK  161  A    between atoms: _374  and  _376
REMARK  162  A    between atoms: _376  and  _377
REMARK  163  A    between atoms: _376  and  _379
REMARK  164  A    between atoms: _379  and  _380
REMARK  165  A    between atoms: _382  and  _384
REMARK  166  A    between atoms: _384  and  _385
REMARK  167  A    between atoms: _388  and  _390
REMARK  168  A    between atoms: _390  and  _391
REMARK  169  A    between atoms: _390  and  _393
REMARK  170  A    between atoms: _396  and  _398
REMARK  171  A    between atoms: _398  and  _399
REMARK  172  A    between atoms: _398  and  _401
REMARK  173  A    between atoms: _404  and  _406
REMARK  174  A    between atoms: _406  and  _407
REMARK  175  A    between atoms: _406  and  _409
REMARK  176  A    between atoms: _409  and  _410
REMARK  177  A    between atoms: _413  and  _415
REMARK  178  A    between atoms: _415  and  _416
REMARK  179  A    between atoms: _415  and  _418
REMARK  180  A    between atoms: _418  and  _419
REMARK  181  A    between atoms: _422  and  _424
REMARK  182  A    between atoms: _424  and  _425
REMARK  183  A    between atoms: _424  and  _427
REMARK  184  A    between atoms: _427  and  _428
REMARK  185  A    between atoms: _428  and  _429
REMARK  186  A    between atoms: _429  and  _430
REMARK  187  A    between atoms: _430  and  _431
REMARK  188  A    between atoms: _435  and  _437
REMARK  189  A    between atoms: _437  and  _438
REMARK  190  A    between atoms: _437  and  _440
REMARK  191  A    between atoms: _440  and  _441
REMARK  192  A    between atoms: _446  and  _448
REMARK  193  A    between atoms: _448  and  _449
REMARK  194  A    between atoms: _448  and  _451
REMARK  195  A    between atoms: _451  and  _452
REMARK  196  A    between atoms: _457  and  _459
REMARK  197  A    between atoms: _459  and  _460
REMARK  198  A    between atoms: _459  and  _462
REMARK  199  A    between atoms: _462  and  _463
REMARK  200  A    between atoms: _466  and  _468
REMARK  201  A    between atoms: _468  and  _469
REMARK  202  A    between atoms: _471  and  _473
REMARK  203  A    between atoms: _473  and  _474
REMARK  204  A    between atoms: _473  and  _476
REMARK  205  A    between atoms: _476  and  _477
REMARK  206  A    between atoms: _480  and  _482
REMARK  207  A    between atoms: _482  and  _483
REMARK  208  A    between atoms: _482  and  _485
REMARK  209  A    between atoms: _485  and  _486
REMARK  210  A    between atoms: _486  and  _487
REMARK  211  A    between atoms: _487  and  _488
REMARK  212  A    between atoms: _488  and  _489
REMARK  213  A    between atoms: _493  and  _495
REMARK  214  A    between atoms: _495  and  _496
REMARK  215  A    between atoms: _495  and  _498
REMARK                            x       y       z     vdW  Elec       q    Type
REMARK                         _______ _______ _______ _____ _____    ______ ____
ROOT
ATOM      1  O   HOH     1       5.273   7.201  13.866  0.00  0.00    +0.000 OA
ENDROOT
TORSDOF 0
REMARK  Name = ../refined-set-2016/4b7p/4b7p_pocket.pdb
REMARK  215 active torsions:
REMARK  status: ('A' for Active; 'I' for Inactive)
REMARK    1  A    between atoms: _1  and  _3
REMARK    2  A    between atoms: _3  and  _4
REMARK    3  A    between atoms: _3  and  _6
REMARK    4  A    between atoms: _6  and  _7
REMARK    5  A    between atoms: _10  and  _12
REMARK    6  A    between atoms: _12  and  _13
REMARK    7  A    between atoms: _12  and  _15
REMARK    8  A    between atoms: _15  and  _16
REMARK    9  A    between atoms: _22  and  _24
REMARK   10  A    between atoms: _24  and  _25
REMARK   11  A    between atoms: _24  and  _27
REMARK   12  A    between atoms: _27  and  _28
REMARK   13  A    between atoms: _31  and  _33
REMARK   14  A    between atoms: _33  and  _34
REMARK   15  A    between atoms: _33  and  _36
REMARK   16  A    between atoms: _36  and  _37
REMARK   17  A    between atoms: _37  and  _38
REMARK   18  A    between atoms: _41  and  _43
REMARK   19  A    between atoms: _43  and  _44
REMARK   20  A    between atoms: _43  and  _46
REMARK   21  A    between atoms: _46  and  _47
REMARK   22  A    between atoms: _50  and  _52
REMARK   23  A    between atoms: _52  and  _53
REMARK   24  A    between atoms: _52  and  _55
REMARK   25  A    between atoms: _55  and  _56
REMARK   26  A    between atoms: _59  and  _61
REMARK   27  A    between atoms: _61  and  _62
REMARK   28  A    between atoms: _61  and  _64
REMARK   29  A    between atoms: _64  and  _65
REMARK   30  A    between atoms: _67  and  _69
REMARK   31  A    between atoms: _69  and  _70
REMARK   32  A    between atoms: _69  and  _72
REMARK   33  A    between atoms: _72  and  _73
REMARK   34  A    between atoms: _78  and  _80
REMARK   35  A    between atoms: _80  and  _81
REMARK   36  A    between atoms: _80  and  _83
REMARK   37  A    between atoms: _83  and  _84
REMARK   38  A    between atoms: _86  and  _88
REMARK   39  A    between atoms: _88  and  _89
REMARK   40  A    between atoms: _88  and  _91
REMARK   41  A    between atoms: _91  and  _92
REMARK   42  A    between atoms: _94  and  _96
REMARK   43  A    between atoms: _96  and  _97
REMARK   44  A    between atoms: _96  and  _99
REMARK   45  A    between atoms: _99  and  _100
REMARK   46  A    between atoms: _103  and  _105
REMARK   47  A    between atoms: _105  and  _106
REMARK   48  A    between atoms: _109  and  _111
REMARK   49  A    between atoms: _111  and  _112
REMARK   50  A    between atoms: _111  and  _114
REMARK   51  A    between atoms: _114  and  _115
REMARK   52  A    between atoms: _118  and  _120
REMARK   53  A    between atoms: _120  and  _121
REMARK   54  A    between atoms: _120  and  _123
REMARK   55  A    between atoms: _123  and  _124
REMARK   56  A    between atoms: _127  and  _129
REMARK   57  A    between atoms: _129  and  _130
REMARK   58  A    between atoms: _129  and  _132
REMARK   59  A    between atoms: _132  and  _133
REMARK   60  A    between atoms: _133  and  _134
REMARK   61  A    between atoms: _134  and  _135
REMARK   62  A    between atoms: _135  and  _136
REMARK   63  A    between atoms: _140  and  _142
REMARK   64  A    between atoms: _142  and  _143
REMARK   65  A    between atoms: _142  and  _145
REMARK   66  A    between atoms: _145  and  _146
REMARK   67  A    between atoms: _149  and  _151
REMARK   68  A    between atoms: _151  and  _152
REMARK   69  A    between atoms: _151  and  _154
REMARK   70  A    between atoms: _154  and  _155
REMARK   71  A    between atoms: _155  and  _156
REMARK   72  A    between atoms: _159  and  _161
REMARK   73  A    between atoms: _161  and  _162
REMARK   74  A    between atoms: _161  and  _164
REMARK   75  A    between atoms: _164  and  _165
REMARK   76  A    between atoms: _168  and  _170
REMARK   77  A    between atoms: _170  and  _171
REMARK   78  A    between atoms: _170  and  _173
REMARK   79  A    between atoms: _176  and  _178
REMARK   80  A    between atoms: _178  and  _179
REMARK   81  A    between atoms: _178  and  _181
REMARK   82  A    between atoms: _181  and  _182
REMARK   83  A    between atoms: _185  and  _187
REMARK   84  A    between atoms: _187  and  _188
REMARK   85  A    between atoms: _187  and  _190
REMARK   86  A    between atoms: _190  and  _191
REMARK   87  A    between atoms: _194  and  _196
REMARK   88  A    between atoms: _196  and  _197
REMARK   89  A    between atoms: _199  and  _201
REMARK   90  A    between atoms: _201  and  _202
REMARK   91  A    between atoms: _201  and  _204
REMARK   92  A    between atoms: _204  and  _205
REMARK   93  A    between atoms: _208  and  _210
REMARK   94  A    between atoms: _210  and  _211
REMARK   95  A    between atoms: _213  and  _215
REMARK   96  A    between atoms: _215  and  _216
REMARK   97  A    between atoms: _215  and  _218
REMARK   98  A    between atoms: _218  and  _219
REMARK   99  A    between atoms: _219  and  _220
REMARK  100  A    between atoms: _222  and  _224
REMARK  101  A    between atoms: _224  and  _225
REMARK  102  A    between atoms: _224  and  _227
REMARK  103  A    between atoms: _227  and  _228
REMARK  104  A    between atoms: _231  and  _233
REMARK  105  A    between atoms: _233  and  _234
REMARK  106  A    between atoms: _237  and  _239
REMARK  107  A    between atoms: _239  and  _240
REMARK  108  A    between atoms: _239  and  _242
REMARK  109  A    between atoms: _242  and  _243
REMARK  110  A    between atoms: _246  and  _248
REMARK  111  A    between atoms: _248  and  _249
REMARK  112  A    between atoms: _248  and  _251
REMARK  113  A    between atoms: _251  and  _252
REMARK  114  A    between atoms: _255  and  _257
REMARK  115  A    between atoms: _257  and  _258
REMARK  116  A    between atoms: _257  and  _260
REMARK  117  A    between atoms: _260  and  _261
REMARK  118  A    between atoms: _266  and  _268
REMARK  119  A    between atoms: _268  and  _269
REMARK  120  A    between atoms: _268  and  _271
REMARK  121  A    between atoms: _271  and  _272
REMARK  122  A    between atoms: _277  and  _279
REMARK  123  A    between atoms: _279  and  _280
REMARK  124  A    between atoms: _279  and  _282
REMARK  125  A    between atoms: _282  and  _283
REMARK  126  A    between atoms: _286  and  _288
REMARK  127  A    between atoms: _288  and  _289
REMARK  128  A    between atoms: _291  and  _293
REMARK  129  A    between atoms: _293  and  _294
REMARK  130  A    between atoms: _293  and  _296
REMARK  131  A    between atoms: _296  and  _297
REMARK  132  A    between atoms: _300  and  _302
REMARK  133  A    between atoms: _302  and  _303
REMARK  134  A    between atoms: _302  and  _305
REMARK  135  A    between atoms: _305  and  _306
REMARK  136  A    between atoms: _306  and  _307
REMARK  137  A    between atoms: _307  and  _308
REMARK  138  A    between atoms: _308  and  _309
REMARK  139  A    between atoms: _313  and  _315
REMARK  140  A    between atoms: _315  and  _316
REMARK  141  A    between atoms: _318  and  _320
REMARK  142  A    between atoms: _320  and  _321
REMARK  143  A    between atoms: _320  and  _323
REMARK  144  A    between atoms: _323  and  _324
REMARK  145  A    between atoms: _330  and  _332
REMARK  146  A    between atoms: _332  and  _333
REMARK  147  A    between atoms: _335  and  _337
REMARK  148  A    between atoms: _337  and  _338
REMARK  149  A    between atoms: _337  and  _340
REMARK  150  A    between atoms: _343  and  _345
REMARK  151  A    between atoms: _345  and  _346
REMARK  152  A    between atoms: _348  and  _350
REMARK  153  A    between atoms: _350  and  _351
REMARK  154  A    between atoms: _350  and  _353
REMARK  155  A    between atoms: _353  and  _354
REMARK  156  A    between atoms: _360  and  _362
REMARK  157  A    between atoms: _362  and  _363
REMARK  158  A    between atoms: _362  and  _365
REMARK  159  A    between atoms: _365  and  _366
REMARK  160  A    between atoms: _371  and  _372
REMARK  161  A    between atoms: _374  and  _376
REMARK  162  A    between atoms: _376  and  _377
REMARK  163  A    between atoms: _376  and  _379
REMARK  164  A    between atoms: _379  and  _380
REMARK  165  A    between atoms: _382  and  _384
REMARK  166  A    between atoms: _384  and  _385
REMARK  167  A    between atoms: _388  and  _390
REMARK  168  A    between atoms: _390  and  _391
REMARK  169  A    between atoms: _390  and  _393
REMARK  170  A    between atoms: _396  and  _398
REMARK  171  A    between atoms: _398  and  _399
REMARK  172  A    between atoms: _398  and  _401
REMARK  173  A    between atoms: _404  and  _406
REMARK  174  A    between atoms: _406  and  _407
REMARK  175  A    between atoms: _406  and  _409
REMARK  176  A    between atoms: _409  and  _410
REMARK  177  A    between atoms: _413  and  _415
REMARK  178  A    between atoms: _415  and  _416
REMARK  179  A    between atoms: _415  and  _418
REMARK  180  A    between atoms: _418  and  _419
REMARK  181  A    between atoms: _422  and  _424
REMARK  182  A    between atoms: _424  and  _425
REMARK  183  A    between atoms: _424  and  _427
REMARK  184  A    between atoms: _427  and  _428
REMARK  185  A    between atoms: _428  and  _429
REMARK  186  A    between atoms: _429  and  _430
REMARK  187  A    between atoms: _430  and  _431
REMARK  188  A    between atoms: _435  and  _437
REMARK  189  A    between atoms: _437  and  _438
REMARK  190  A    between atoms: _437  and  _440
REMARK  191  A    between atoms: _440  and  _441
REMARK  192  A    between atoms: _446  and  _448
REMARK  193  A    between atoms: _448  and  _449
REMARK  194  A    between atoms: _448  and  _451
REMARK  195  A    between atoms: _451  and  _452
REMARK  196  A    between atoms: _457  and  _459
REMARK  197  A    between atoms: _459  and  _460
REMARK  198  A    between atoms: _459  and  _462
REMARK  199  A    between atoms: _462  and  _463
REMARK  200  A    between atoms: _466  and  _468
REMARK  201  A    between atoms: _468  and  _469
REMARK  202  A    between atoms: _471  and  _473
REMARK  203  A    between atoms: _473  and  _474
REMARK  204  A    between atoms: _473  and  _476
REMARK  205  A    between atoms: _476  and  _477
REMARK  206  A    between atoms: _480  and  _482
REMARK  207  A    between atoms: _482  and  _483
REMARK  208  A    between atoms: _482  and  _485
REMARK  209  A    between atoms: _485  and  _486
REMARK  210  A    between atoms: _486  and  _487
REMARK  211  A    between atoms: _487  and  _488
REMARK  212  A    between atoms: _488  and  _489
REMARK  213  A    between atoms: _493  and  _495
REMARK  214  A    between atoms: _495  and  _496
REMARK  215  A    between atoms: _495  and  _498
REMARK                            x       y       z     vdW  Elec       q    Type
REMARK                         _______ _______ _______ _____ _____    ______ ____
ROOT
ATOM      1  O   HOH     1      -0.634  10.560  17.393  0.00  0.00    +0.000 OA
ENDROOT
TORSDOF 0
REMARK  Name = ../refined-set-2016/4b7p/4b7p_pocket.pdb
REMARK  215 active torsions:
REMARK  status: ('A' for Active; 'I' for Inactive)
REMARK    1  A    between atoms: _1  and  _3
REMARK    2  A    between atoms: _3  and  _4
REMARK    3  A    between atoms: _3  and  _6
REMARK    4  A    between atoms: _6  and  _7
REMARK    5  A    between atoms: _10  and  _12
REMARK    6  A    between atoms: _12  and  _13
REMARK    7  A    between atoms: _12  and  _15
REMARK    8  A    between atoms: _15  and  _16
REMARK    9  A    between atoms: _22  and  _24
REMARK   10  A    between atoms: _24  and  _25
REMARK   11  A    between atoms: _24  and  _27
REMARK   12  A    between atoms: _27  and  _28
REMARK   13  A    between atoms: _31  and  _33
REMARK   14  A    between atoms: _33  and  _34
REMARK   15  A    between atoms: _33  and  _36
REMARK   16  A    between atoms: _36  and  _37
REMARK   17  A    between atoms: _37  and  _38
REMARK   18  A    between atoms: _41  and  _43
REMARK   19  A    between atoms: _43  and  _44
REMARK   20  A    between atoms: _43  and  _46
REMARK   21  A    between atoms: _46  and  _47
REMARK   22  A    between atoms: _50  and  _52
REMARK   23  A    between atoms: _52  and  _53
REMARK   24  A    between atoms: _52  and  _55
REMARK   25  A    between atoms: _55  and  _56
REMARK   26  A    between atoms: _59  and  _61
REMARK   27  A    between atoms: _61  and  _62
REMARK   28  A    between atoms: _61  and  _64
REMARK   29  A    between atoms: _64  and  _65
REMARK   30  A    between atoms: _67  and  _69
REMARK   31  A    between atoms: _69  and  _70
REMARK   32  A    between atoms: _69  and  _72
REMARK   33  A    between atoms: _72  and  _73
REMARK   34  A    between atoms: _78  and  _80
REMARK   35  A    between atoms: _80  and  _81
REMARK   36  A    between atoms: _80  and  _83
REMARK   37  A    between atoms: _83  and  _84
REMARK   38  A    between atoms: _86  and  _88
REMARK   39  A    between atoms: _88  and  _89
REMARK   40  A    between atoms: _88  and  _91
REMARK   41  A    between atoms: _91  and  _92
REMARK   42  A    between atoms: _94  and  _96
REMARK   43  A    between atoms: _96  and  _97
REMARK   44  A    between atoms: _96  and  _99
REMARK   45  A    between atoms: _99  and  _100
REMARK   46  A    between atoms: _103  and  _105
REMARK   47  A    between atoms: _105  and  _106
REMARK   48  A    between atoms: _109  and  _111
REMARK   49  A    between atoms: _111  and  _112
REMARK   50  A    between atoms: _111  and  _114
REMARK   51  A    between atoms: _114  and  _115
REMARK   52  A    between atoms: _118  and  _120
REMARK   53  A    between atoms: _120  and  _121
REMARK   54  A    between atoms: _120  and  _123
REMARK   55  A    between atoms: _123  and  _124
REMARK   56  A    between atoms: _127  and  _129
REMARK   57  A    between atoms: _129  and  _130
REMARK   58  A    between atoms: _129  and  _132
REMARK   59  A    between atoms: _132  and  _133
REMARK   60  A    between atoms: _133  and  _134
REMARK   61  A    between atoms: _134  and  _135
REMARK   62  A    between atoms: _135  and  _136
REMARK   63  A    between atoms: _140  and  _142
REMARK   64  A    between atoms: _142  and  _143
REMARK   65  A    between atoms: _142  and  _145
REMARK   66  A    between atoms: _145  and  _146
REMARK   67  A    between atoms: _149  and  _151
REMARK   68  A    between atoms: _151  and  _152
REMARK   69  A    between atoms: _151  and  _154
REMARK   70  A    between atoms: _154  and  _155
REMARK   71  A    between atoms: _155  and  _156
REMARK   72  A    between atoms: _159  and  _161
REMARK   73  A    between atoms: _161  and  _162
REMARK   74  A    between atoms: _161  and  _164
REMARK   75  A    between atoms: _164  and  _165
REMARK   76  A    between atoms: _168  and  _170
REMARK   77  A    between atoms: _170  and  _171
REMARK   78  A    between atoms: _170  and  _173
REMARK   79  A    between atoms: _176  and  _178
REMARK   80  A    between atoms: _178  and  _179
REMARK   81  A    between atoms: _178  and  _181
REMARK   82  A    between atoms: _181  and  _182
REMARK   83  A    between atoms: _185  and  _187
REMARK   84  A    between atoms: _187  and  _188
REMARK   85  A    between atoms: _187  and  _190
REMARK   86  A    between atoms: _190  and  _191
REMARK   87  A    between atoms: _194  and  _196
REMARK   88  A    between atoms: _196  and  _197
REMARK   89  A    between atoms: _199  and  _201
REMARK   90  A    between atoms: _201  and  _202
REMARK   91  A    between atoms: _201  and  _204
REMARK   92  A    between atoms: _204  and  _205
REMARK   93  A    between atoms: _208  and  _210
REMARK   94  A    between atoms: _210  and  _211
REMARK   95  A    between atoms: _213  and  _215
REMARK   96  A    between atoms: _215  and  _216
REMARK   97  A    between atoms: _215  and  _218
REMARK   98  A    between atoms: _218  and  _219
REMARK   99  A    between atoms: _219  and  _220
REMARK  100  A    between atoms: _222  and  _224
REMARK  101  A    between atoms: _224  and  _225
REMARK  102  A    between atoms: _224  and  _227
REMARK  103  A    between atoms: _227  and  _228
REMARK  104  A    between atoms: _231  and  _233
REMARK  105  A    between atoms: _233  and  _234
REMARK  106  A    between atoms: _237  and  _239
REMARK  107  A    between atoms: _239  and  _240
REMARK  108  A    between atoms: _239  and  _242
REMARK  109  A    between atoms: _242  and  _243
REMARK  110  A    between atoms: _246  and  _248
REMARK  111  A    between atoms: _248  and  _249
REMARK  112  A    between atoms: _248  and  _251
REMARK  113  A    between atoms: _251  and  _252
REMARK  114  A    between atoms: _255  and  _257
REMARK  115  A    between atoms: _257  and  _258
REMARK  116  A    between atoms: _257  and  _260
REMARK  117  A    between atoms: _260  and  _261
REMARK  118  A    between atoms: _266  and  _268
REMARK  119  A    between atoms: _268  and  _269
REMARK  120  A    between atoms: _268  and  _271
REMARK  121  A    between atoms: _271  and  _272
REMARK  122  A    between atoms: _277  and  _279
REMARK  123  A    between atoms: _279  and  _280
REMARK  124  A    between atoms: _279  and  _282
REMARK  125  A    between atoms: _282  and  _283
REMARK  126  A    between atoms: _286  and  _288
REMARK  127  A    between atoms: _288  and  _289
REMARK  128  A    between atoms: _291  and  _293
REMARK  129  A    between atoms: _293  and  _294
REMARK  130  A    between atoms: _293  and  _296
REMARK  131  A    between atoms: _296  and  _297
REMARK  132  A    between atoms: _300  and  _302
REMARK  133  A    between atoms: _302  and  _303
REMARK  134  A    between atoms: _302  and  _305
REMARK  135  A    between atoms: _305  and  _306
REMARK  136  A    between atoms: _306  and  _307
REMARK  137  A    between atoms: _307  and  _308
REMARK  138  A    between atoms: _308  and  _309
REMARK  139  A    between atoms: _313  and  _315
REMARK  140  A    between atoms: _315  and  _316
REMARK  141  A    between atoms: _318  and  _320
REMARK  142  A    between atoms: _320  and  _321
REMARK  143  A    between atoms: _320  and  _323
REMARK  144  A    between atoms: _323  and  _324
REMARK  145  A    between atoms: _330  and  _332
REMARK  146  A    between atoms: _332  and  _333
REMARK  147  A    between atoms: _335  and  _337
REMARK  148  A    between atoms: _337  and  _338
REMARK  149  A    between atoms: _337  and  _340
REMARK  150  A    between atoms: _343  and  _345
REMARK  151  A    between atoms: _345  and  _346
REMARK  152  A    between atoms: _348  and  _350
REMARK  153  A    between atoms: _350  and  _351
REMARK  154  A    between atoms: _350  and  _353
REMARK  155  A    between atoms: _353  and  _354
REMARK  156  A    between atoms: _360  and  _362
REMARK  157  A    between atoms: _362  and  _363
REMARK  158  A    between atoms: _362  and  _365
REMARK  159  A    between atoms: _365  and  _366
REMARK  160  A    between atoms: _371  and  _372
REMARK  161  A    between atoms: _374  and  _376
REMARK  162  A    between atoms: _376  and  _377
REMARK  163  A    between atoms: _376  and  _379
REMARK  164  A    between atoms: _379  and  _380
REMARK  165  A    between atoms: _382  and  _384
REMARK  166  A    between atoms: _384  and  _385
REMARK  167  A    between atoms: _388  and  _390
REMARK  168  A    between atoms: _390  and  _391
REMARK  169  A    between atoms: _390  and  _393
REMARK  170  A    between atoms: _396  and  _398
REMARK  171  A    between atoms: _398  and  _399
REMARK  172  A    between atoms: _398  and  _401
REMARK  173  A    between atoms: _404  and  _406
REMARK  174  A    between atoms: _406  and  _407
REMARK  175  A    between atoms: _406  and  _409
REMARK  176  A    between atoms: _409  and  _410
REMARK  177  A    between atoms: _413  and  _415
REMARK  178  A    between atoms: _415  and  _416
REMARK  179  A    between atoms: _415  and  _418
REMARK  180  A    between atoms: _418  and  _419
REMARK  181  A    between atoms: _422  and  _424
REMARK  182  A    between atoms: _424  and  _425
REMARK  183  A    between atoms: _424  and  _427
REMARK  184  A    between atoms: _427  and  _428
REMARK  185  A    between atoms: _428  and  _429
REMARK  186  A    between atoms: _429  and  _430
REMARK  187  A    between atoms: _430  and  _431
REMARK  188  A    between atoms: _435  and  _437
REMARK  189  A    between atoms: _437  and  _438
REMARK  190  A    between atoms: _437  and  _440
REMARK  191  A    between atoms: _440  and  _441
REMARK  192  A    between atoms: _446  and  _448
REMARK  193  A    between atoms: _448  and  _449
REMARK  194  A    between atoms: _448  and  _451
REMARK  195  A    between atoms: _451  and  _452
REMARK  196  A    between atoms: _457  and  _459
REMARK  197  A    between atoms: _459  and  _460
REMARK  198  A    between atoms: _459  and  _462
REMARK  199  A    between atoms: _462  and  _463
REMARK  200  A    between atoms: _466  and  _468
REMARK  201  A    between atoms: _468  and  _469
REMARK  202  A    between atoms: _471  and  _473
REMARK  203  A    between atoms: _473  and  _474
REMARK  204  A    between atoms: _473  and  _476
REMARK  205  A    between atoms: _476  and  _477
REMARK  206  A    between atoms: _480  and  _482
REMARK  207  A    between atoms: _482  and  _483
REMARK  208  A    between atoms: _482  and  _485
REMARK  209  A    between atoms: _485  and  _486
REMARK  210  A    between atoms: _486  and  _487
REMARK  211  A    between atoms: _487  and  _488
REMARK  212  A    between atoms: _488  and  _489
REMARK  213  A    between atoms: _493  and  _495
REMARK  214  A    between atoms: _495  and  _496
REMARK  215  A    between atoms: _495  and  _498
REMARK                            x       y       z     vdW  Elec       q    Type
REMARK                         _______ _______ _______ _____ _____    ______ ____
ROOT
ATOM      1  O   HOH     1       0.872   1.386  10.857  0.00  0.00    +0.000 OA
ENDROOT
TORSDOF 0
REMARK  Name = ../refined-set-2016/4b7p/4b7p_pocket.pdb
REMARK  215 active torsions:
REMARK  status: ('A' for Active; 'I' for Inactive)
REMARK    1  A    between atoms: _1  and  _3
REMARK    2  A    between atoms: _3  and  _4
REMARK    3  A    between atoms: _3  and  _6
REMARK    4  A    between atoms: _6  and  _7
REMARK    5  A    between atoms: _10  and  _12
REMARK    6  A    between atoms: _12  and  _13
REMARK    7  A    between atoms: _12  and  _15
REMARK    8  A    between atoms: _15  and  _16
REMARK    9  A    between atoms: _22  and  _24
REMARK   10  A    between atoms: _24  and  _25
REMARK   11  A    between atoms: _24  and  _27
REMARK   12  A    between atoms: _27  and  _28
REMARK   13  A    between atoms: _31  and  _33
REMARK   14  A    between atoms: _33  and  _34
REMARK   15  A    between atoms: _33  and  _36
REMARK   16  A    between atoms: _36  and  _37
REMARK   17  A    between atoms: _37  and  _38
REMARK   18  A    between atoms: _41  and  _43
REMARK   19  A    between atoms: _43  and  _44
REMARK   20  A    between atoms: _43  and  _46
REMARK   21  A    between atoms: _46  and  _47
REMARK   22  A    between atoms: _50  and  _52
REMARK   23  A    between atoms: _52  and  _53
REMARK   24  A    between atoms: _52  and  _55
REMARK   25  A    between atoms: _55  and  _56
REMARK   26  A    between atoms: _59  and  _61
REMARK   27  A    between atoms: _61  and  _62
REMARK   28  A    between atoms: _61  and  _64
REMARK   29  A    between atoms: _64  and  _65
REMARK   30  A    between atoms: _67  and  _69
REMARK   31  A    between atoms: _69  and  _70
REMARK   32  A    between atoms: _69  and  _72
REMARK   33  A    between atoms: _72  and  _73
REMARK   34  A    between atoms: _78  and  _80
REMARK   35  A    between atoms: _80  and  _81
REMARK   36  A    between atoms: _80  and  _83
REMARK   37  A    between atoms: _83  and  _84
REMARK   38  A    between atoms: _86  and  _88
REMARK   39  A    between atoms: _88  and  _89
REMARK   40  A    between atoms: _88  and  _91
REMARK   41  A    between atoms: _91  and  _92
REMARK   42  A    between atoms: _94  and  _96
REMARK   43  A    between atoms: _96  and  _97
REMARK   44  A    between atoms: _96  and  _99
REMARK   45  A    between atoms: _99  and  _100
REMARK   46  A    between atoms: _103  and  _105
REMARK   47  A    between atoms: _105  and  _106
REMARK   48  A    between atoms: _109  and  _111
REMARK   49  A    between atoms: _111  and  _112
REMARK   50  A    between atoms: _111  and  _114
REMARK   51  A    between atoms: _114  and  _115
REMARK   52  A    between atoms: _118  and  _120
REMARK   53  A    between atoms: _120  and  _121
REMARK   54  A    between atoms: _120  and  _123
REMARK   55  A    between atoms: _123  and  _124
REMARK   56  A    between atoms: _127  and  _129
REMARK   57  A    between atoms: _129  and  _130
REMARK   58  A    between atoms: _129  and  _132
REMARK   59  A    between atoms: _132  and  _133
REMARK   60  A    between atoms: _133  and  _134
REMARK   61  A    between atoms: _134  and  _135
REMARK   62  A    between atoms: _135  and  _136
REMARK   63  A    between atoms: _140  and  _142
REMARK   64  A    between atoms: _142  and  _143
REMARK   65  A    between atoms: _142  and  _145
REMARK   66  A    between atoms: _145  and  _146
REMARK   67  A    between atoms: _149  and  _151
REMARK   68  A    between atoms: _151  and  _152
REMARK   69  A    between atoms: _151  and  _154
REMARK   70  A    between atoms: _154  and  _155
REMARK   71  A    between atoms: _155  and  _156
REMARK   72  A    between atoms: _159  and  _161
REMARK   73  A    between atoms: _161  and  _162
REMARK   74  A    between atoms: _161  and  _164
REMARK   75  A    between atoms: _164  and  _165
REMARK   76  A    between atoms: _168  and  _170
REMARK   77  A    between atoms: _170  and  _171
REMARK   78  A    between atoms: _170  and  _173
REMARK   79  A    between atoms: _176  and  _178
REMARK   80  A    between atoms: _178  and  _179
REMARK   81  A    between atoms: _178  and  _181
REMARK   82  A    between atoms: _181  and  _182
REMARK   83  A    between atoms: _185  and  _187
REMARK   84  A    between atoms: _187  and  _188
REMARK   85  A    between atoms: _187  and  _190
REMARK   86  A    between atoms: _190  and  _191
REMARK   87  A    between atoms: _194  and  _196
REMARK   88  A    between atoms: _196  and  _197
REMARK   89  A    between atoms: _199  and  _201
REMARK   90  A    between atoms: _201  and  _202
REMARK   91  A    between atoms: _201  and  _204
REMARK   92  A    between atoms: _204  and  _205
REMARK   93  A    between atoms: _208  and  _210
REMARK   94  A    between atoms: _210  and  _211
REMARK   95  A    between atoms: _213  and  _215
REMARK   96  A    between atoms: _215  and  _216
REMARK   97  A    between atoms: _215  and  _218
REMARK   98  A    between atoms: _218  and  _219
REMARK   99  A    between atoms: _219  and  _220
REMARK  100  A    between atoms: _222  and  _224
REMARK  101  A    between atoms: _224  and  _225
REMARK  102  A    between atoms: _224  and  _227
REMARK  103  A    between atoms: _227  and  _228
REMARK  104  A    between atoms: _231  and  _233
REMARK  105  A    between atoms: _233  and  _234
REMARK  106  A    between atoms: _237  and  _239
REMARK  107  A    between atoms: _239  and  _240
REMARK  108  A    between atoms: _239  and  _242
REMARK  109  A    between atoms: _242  and  _243
REMARK  110  A    between atoms: _246  and  _248
REMARK  111  A    between atoms: _248  and  _249
REMARK  112  A    between atoms: _248  and  _251
REMARK  113  A    between atoms: _251  and  _252
REMARK  114  A    between atoms: _255  and  _257
REMARK  115  A    between atoms: _257  and  _258
REMARK  116  A    between atoms: _257  and  _260
REMARK  117  A    between atoms: _260  and  _261
REMARK  118  A    between atoms: _266  and  _268
REMARK  119  A    between atoms: _268  and  _269
REMARK  120  A    between atoms: _268  and  _271
REMARK  121  A    between atoms: _271  and  _272
REMARK  122  A    between atoms: _277  and  _279
REMARK  123  A    between atoms: _279  and  _280
REMARK  124  A    between atoms: _279  and  _282
REMARK  125  A    between atoms: _282  and  _283
REMARK  126  A    between atoms: _286  and  _288
REMARK  127  A    between atoms: _288  and  _289
REMARK  128  A    between atoms: _291  and  _293
REMARK  129  A    between atoms: _293  and  _294
REMARK  130  A    between atoms: _293  and  _296
REMARK  131  A    between atoms: _296  and  _297
REMARK  132  A    between atoms: _300  and  _302
REMARK  133  A    between atoms: _302  and  _303
REMARK  134  A    between atoms: _302  and  _305
REMARK  135  A    between atoms: _305  and  _306
REMARK  136  A    between atoms: _306  and  _307
REMARK  137  A    between atoms: _307  and  _308
REMARK  138  A    between atoms: _308  and  _309
REMARK  139  A    between atoms: _313  and  _315
REMARK  140  A    between atoms: _315  and  _316
REMARK  141  A    between atoms: _318  and  _320
REMARK  142  A    between atoms: _320  and  _321
REMARK  143  A    between atoms: _320  and  _323
REMARK  144  A    between atoms: _323  and  _324
REMARK  145  A    between atoms: _330  and  _332
REMARK  146  A    between atoms: _332  and  _333
REMARK  147  A    between atoms: _335  and  _337
REMARK  148  A    between atoms: _337  and  _338
REMARK  149  A    between atoms: _337  and  _340
REMARK  150  A    between atoms: _343  and  _345
REMARK  151  A    between atoms: _345  and  _346
REMARK  152  A    between atoms: _348  and  _350
REMARK  153  A    between atoms: _350  and  _351
REMARK  154  A    between atoms: _350  and  _353
REMARK  155  A    between atoms: _353  and  _354
REMARK  156  A    between atoms: _360  and  _362
REMARK  157  A    between atoms: _362  and  _363
REMARK  158  A    between atoms: _362  and  _365
REMARK  159  A    between atoms: _365  and  _366
REMARK  160  A    between atoms: _371  and  _372
REMARK  161  A    between atoms: _374  and  _376
REMARK  162  A    between atoms: _376  and  _377
REMARK  163  A    between atoms: _376  and  _379
REMARK  164  A    between atoms: _379  and  _380
REMARK  165  A    between atoms: _382  and  _384
REMARK  166  A    between atoms: _384  and  _385
REMARK  167  A    between atoms: _388  and  _390
REMARK  168  A    between atoms: _390  and  _391
REMARK  169  A    between atoms: _390  and  _393
REMARK  170  A    between atoms: _396  and  _398
REMARK  171  A    between atoms: _398  and  _399
REMARK  172  A    between atoms: _398  and  _401
REMARK  173  A    between atoms: _404  and  _406
REMARK  174  A    between atoms: _406  and  _407
REMARK  175  A    between atoms: _406  and  _409
REMARK  176  A    between atoms: _409  and  _410
REMARK  177  A    between atoms: _413  and  _415
REMARK  178  A    between atoms: _415  and  _416
REMARK  179  A    between atoms: _415  and  _418
REMARK  180  A    between atoms: _418  and  _419
REMARK  181  A    between atoms: _422  and  _424
REMARK  182  A    between atoms: _424  and  _425
REMARK  183  A    between atoms: _424  and  _427
REMARK  184  A    between atoms: _427  and  _428
REMARK  185  A    between atoms: _428  and  _429
REMARK  186  A    between atoms: _429  and  _430
REMARK  187  A    between atoms: _430  and  _431
REMARK  188  A    between atoms: _435  and  _437
REMARK  189  A    between atoms: _437  and  _438
REMARK  190  A    between atoms: _437  and  _440
REMARK  191  A    between atoms: _440  and  _441
REMARK  192  A    between atoms: _446  and  _448
REMARK  193  A    between atoms: _448  and  _449
REMARK  194  A    between atoms: _448  and  _451
REMARK  195  A    between atoms: _451  and  _452
REMARK  196  A    between atoms: _457  and  _459
REMARK  197  A    between atoms: _459  and  _460
REMARK  198  A    between atoms: _459  and  _462
REMARK  199  A    between atoms: _462  and  _463
REMARK  200  A    between atoms: _466  and  _468
REMARK  201  A    between atoms: _468  and  _469
REMARK  202  A    between atoms: _471  and  _473
REMARK  203  A    between atoms: _473  and  _474
REMARK  204  A    between atoms: _473  and  _476
REMARK  205  A    between atoms: _476  and  _477
REMARK  206  A    between atoms: _480  and  _482
REMARK  207  A    between atoms: _482  and  _483
REMARK  208  A    between atoms: _482  and  _485
REMARK  209  A    between atoms: _485  and  _486
REMARK  210  A    between atoms: _486  and  _487
REMARK  211  A    between atoms: _487  and  _488
REMARK  212  A    between atoms: _488  and  _489
REMARK  213  A    between atoms: _493  and  _495
REMARK  214  A    between atoms: _495  and  _496
REMARK  215  A    between atoms: _495  and  _498
REMARK                            x       y       z     vdW  Elec       q    Type
REMARK                         _______ _______ _______ _____ _____    ______ ____
ROOT
ATOM      1  O   HOH     1      -6.155   2.188  15.926  0.00  0.00    +0.000 OA
ENDROOT
TORSDOF 0
REMARK  Name = ../refined-set-2016/4b7p/4b7p_pocket.pdb
REMARK  215 active torsions:
REMARK  status: ('A' for Active; 'I' for Inactive)
REMARK    1  A    between atoms: _1  and  _3
REMARK    2  A    between atoms: _3  and  _4
REMARK    3  A    between atoms: _3  and  _6
REMARK    4  A    between atoms: _6  and  _7
REMARK    5  A    between atoms: _10  and  _12
REMARK    6  A    between atoms: _12  and  _13
REMARK    7  A    between atoms: _12  and  _15
REMARK    8  A    between atoms: _15  and  _16
REMARK    9  A    between atoms: _22  and  _24
REMARK   10  A    between atoms: _24  and  _25
REMARK   11  A    between atoms: _24  and  _27
REMARK   12  A    between atoms: _27  and  _28
REMARK   13  A    between atoms: _31  and  _33
REMARK   14  A    between atoms: _33  and  _34
REMARK   15  A    between atoms: _33  and  _36
REMARK   16  A    between atoms: _36  and  _37
REMARK   17  A    between atoms: _37  and  _38
REMARK   18  A    between atoms: _41  and  _43
REMARK   19  A    between atoms: _43  and  _44
REMARK   20  A    between atoms: _43  and  _46
REMARK   21  A    between atoms: _46  and  _47
REMARK   22  A    between atoms: _50  and  _52
REMARK   23  A    between atoms: _52  and  _53
REMARK   24  A    between atoms: _52  and  _55
REMARK   25  A    between atoms: _55  and  _56
REMARK   26  A    between atoms: _59  and  _61
REMARK   27  A    between atoms: _61  and  _62
REMARK   28  A    between atoms: _61  and  _64
REMARK   29  A    between atoms: _64  and  _65
REMARK   30  A    between atoms: _67  and  _69
REMARK   31  A    between atoms: _69  and  _70
REMARK   32  A    between atoms: _69  and  _72
REMARK   33  A    between atoms: _72  and  _73
REMARK   34  A    between atoms: _78  and  _80
REMARK   35  A    between atoms: _80  and  _81
REMARK   36  A    between atoms: _80  and  _83
REMARK   37  A    between atoms: _83  and  _84
REMARK   38  A    between atoms: _86  and  _88
REMARK   39  A    between atoms: _88  and  _89
REMARK   40  A    between atoms: _88  and  _91
REMARK   41  A    between atoms: _91  and  _92
REMARK   42  A    between atoms: _94  and  _96
REMARK   43  A    between atoms: _96  and  _97
REMARK   44  A    between atoms: _96  and  _99
REMARK   45  A    between atoms: _99  and  _100
REMARK   46  A    between atoms: _103  and  _105
REMARK   47  A    between atoms: _105  and  _106
REMARK   48  A    between atoms: _109  and  _111
REMARK   49  A    between atoms: _111  and  _112
REMARK   50  A    between atoms: _111  and  _114
REMARK   51  A    between atoms: _114  and  _115
REMARK   52  A    between atoms: _118  and  _120
REMARK   53  A    between atoms: _120  and  _121
REMARK   54  A    between atoms: _120  and  _123
REMARK   55  A    between atoms: _123  and  _124
REMARK   56  A    between atoms: _127  and  _129
REMARK   57  A    between atoms: _129  and  _130
REMARK   58  A    between atoms: _129  and  _132
REMARK   59  A    between atoms: _132  and  _133
REMARK   60  A    between atoms: _133  and  _134
REMARK   61  A    between atoms: _134  and  _135
REMARK   62  A    between atoms: _135  and  _136
REMARK   63  A    between atoms: _140  and  _142
REMARK   64  A    between atoms: _142  and  _143
REMARK   65  A    between atoms: _142  and  _145
REMARK   66  A    between atoms: _145  and  _146
REMARK   67  A    between atoms: _149  and  _151
REMARK   68  A    between atoms: _151  and  _152
REMARK   69  A    between atoms: _151  and  _154
REMARK   70  A    between atoms: _154  and  _155
REMARK   71  A    between atoms: _155  and  _156
REMARK   72  A    between atoms: _159  and  _161
REMARK   73  A    between atoms: _161  and  _162
REMARK   74  A    between atoms: _161  and  _164
REMARK   75  A    between atoms: _164  and  _165
REMARK   76  A    between atoms: _168  and  _170
REMARK   77  A    between atoms: _170  and  _171
REMARK   78  A    between atoms: _170  and  _173
REMARK   79  A    between atoms: _176  and  _178
REMARK   80  A    between atoms: _178  and  _179
REMARK   81  A    between atoms: _178  and  _181
REMARK   82  A    between atoms: _181  and  _182
REMARK   83  A    between atoms: _185  and  _187
REMARK   84  A    between atoms: _187  and  _188
REMARK   85  A    between atoms: _187  and  _190
REMARK   86  A    between atoms: _190  and  _191
REMARK   87  A    between atoms: _194  and  _196
REMARK   88  A    between atoms: _196  and  _197
REMARK   89  A    between atoms: _199  and  _201
REMARK   90  A    between atoms: _201  and  _202
REMARK   91  A    between atoms: _201  and  _204
REMARK   92  A    between atoms: _204  and  _205
REMARK   93  A    between atoms: _208  and  _210
REMARK   94  A    between atoms: _210  and  _211
REMARK   95  A    between atoms: _213  and  _215
REMARK   96  A    between atoms: _215  and  _216
REMARK   97  A    between atoms: _215  and  _218
REMARK   98  A    between atoms: _218  and  _219
REMARK   99  A    between atoms: _219  and  _220
REMARK  100  A    between atoms: _222  and  _224
REMARK  101  A    between atoms: _224  and  _225
REMARK  102  A    between atoms: _224  and  _227
REMARK  103  A    between atoms: _227  and  _228
REMARK  104  A    between atoms: _231  and  _233
REMARK  105  A    between atoms: _233  and  _234
REMARK  106  A    between atoms: _237  and  _239
REMARK  107  A    between atoms: _239  and  _240
REMARK  108  A    between atoms: _239  and  _242
REMARK  109  A    between atoms: _242  and  _243
REMARK  110  A    between atoms: _246  and  _248
REMARK  111  A    between atoms: _248  and  _249
REMARK  112  A    between atoms: _248  and  _251
REMARK  113  A    between atoms: _251  and  _252
REMARK  114  A    between atoms: _255  and  _257
REMARK  115  A    between atoms: _257  and  _258
REMARK  116  A    between atoms: _257  and  _260
REMARK  117  A    between atoms: _260  and  _261
REMARK  118  A    between atoms: _266  and  _268
REMARK  119  A    between atoms: _268  and  _269
REMARK  120  A    between atoms: _268  and  _271
REMARK  121  A    between atoms: _271  and  _272
REMARK  122  A    between atoms: _277  and  _279
REMARK  123  A    between atoms: _279  and  _280
REMARK  124  A    between atoms: _279  and  _282
REMARK  125  A    between atoms: _282  and  _283
REMARK  126  A    between atoms: _286  and  _288
REMARK  127  A    between atoms: _288  and  _289
REMARK  128  A    between atoms: _291  and  _293
REMARK  129  A    between atoms: _293  and  _294
REMARK  130  A    between atoms: _293  and  _296
REMARK  131  A    between atoms: _296  and  _297
REMARK  132  A    between atoms: _300  and  _302
REMARK  133  A    between atoms: _302  and  _303
REMARK  134  A    between atoms: _302  and  _305
REMARK  135  A    between atoms: _305  and  _306
REMARK  136  A    between atoms: _306  and  _307
REMARK  137  A    between atoms: _307  and  _308
REMARK  138  A    between atoms: _308  and  _309
REMARK  139  A    between atoms: _313  and  _315
REMARK  140  A    between atoms: _315  and  _316
REMARK  141  A    between atoms: _318  and  _320
REMARK  142  A    between atoms: _320  and  _321
REMARK  143  A    between atoms: _320  and  _323
REMARK  144  A    between atoms: _323  and  _324
REMARK  145  A    between atoms: _330  and  _332
REMARK  146  A    between atoms: _332  and  _333
REMARK  147  A    between atoms: _335  and  _337
REMARK  148  A    between atoms: _337  and  _338
REMARK  149  A    between atoms: _337  and  _340
REMARK  150  A    between atoms: _343  and  _345
REMARK  151  A    between atoms: _345  and  _346
REMARK  152  A    between atoms: _348  and  _350
REMARK  153  A    between atoms: _350  and  _351
REMARK  154  A    between atoms: _350  and  _353
REMARK  155  A    between atoms: _353  and  _354
REMARK  156  A    between atoms: _360  and  _362
REMARK  157  A    between atoms: _362  and  _363
REMARK  158  A    between atoms: _362  and  _365
REMARK  159  A    between atoms: _365  and  _366
REMARK  160  A    between atoms: _371  and  _372
REMARK  161  A    between atoms: _374  and  _376
REMARK  162  A    between atoms: _376  and  _377
REMARK  163  A    between atoms: _376  and  _379
REMARK  164  A    between atoms: _379  and  _380
REMARK  165  A    between atoms: _382  and  _384
REMARK  166  A    between atoms: _384  and  _385
REMARK  167  A    between atoms: _388  and  _390
REMARK  168  A    between atoms: _390  and  _391
REMARK  169  A    between atoms: _390  and  _393
REMARK  170  A    between atoms: _396  and  _398
REMARK  171  A    between atoms: _398  and  _399
REMARK  172  A    between atoms: _398  and  _401
REMARK  173  A    between atoms: _404  and  _406
REMARK  174  A    between atoms: _406  and  _407
REMARK  175  A    between atoms: _406  and  _409
REMARK  176  A    between atoms: _409  and  _410
REMARK  177  A    between atoms: _413  and  _415
REMARK  178  A    between atoms: _415  and  _416
REMARK  179  A    between atoms: _415  and  _418
REMARK  180  A    between atoms: _418  and  _419
REMARK  181  A    between atoms: _422  and  _424
REMARK  182  A    between atoms: _424  and  _425
REMARK  183  A    between atoms: _424  and  _427
REMARK  184  A    between atoms: _427  and  _428
REMARK  185  A    between atoms: _428  and  _429
REMARK  186  A    between atoms: _429  and  _430
REMARK  187  A    between atoms: _430  and  _431
REMARK  188  A    between atoms: _435  and  _437
REMARK  189  A    between atoms: _437  and  _438
REMARK  190  A    between atoms: _437  and  _440
REMARK  191  A    between atoms: _440  and  _441
REMARK  192  A    between atoms: _446  and  _448
REMARK  193  A    between atoms: _448  and  _449
REMARK  194  A    between atoms: _448  and  _451
REMARK  195  A    between atoms: _451  and  _452
REMARK  196  A    between atoms: _457  and  _459
REMARK  197  A    between atoms: _459  and  _460
REMARK  198  A    between atoms: _459  and  _462
REMARK  199  A    between atoms: _462  and  _463
REMARK  200  A    between atoms: _466  and  _468
REMARK  201  A    between atoms: _468  and  _469
REMARK  202  A    between atoms: _471  and  _473
REMARK  203  A    between atoms: _473  and  _474
REMARK  204  A    between atoms: _473  and  _476
REMARK  205  A    between atoms: _476  and  _477
REMARK  206  A    between atoms: _480  and  _482
REMARK  207  A    between atoms: _482  and  _483
REMARK  208  A    between atoms: _482  and  _485
REMARK  209  A    between atoms: _485  and  _486
REMARK  210  A    between atoms: _486  and  _487
REMARK  211  A    between atoms: _487  and  _488
REMARK  212  A    between atoms: _488  and  _489
REMARK  213  A    between atoms: _493  and  _495
REMARK  214  A    between atoms: _495  and  _496
REMARK  215  A    between atoms: _495  and  _498
REMARK                            x       y       z     vdW  Elec       q    Type
REMARK                         _______ _______ _______ _____ _____    ______ ____
ROOT
ATOM      1  O   HOH     1      -5.534  -0.732  13.638  0.00  0.00    +0.000 OA
ENDROOT
TORSDOF 0
REMARK  Name = ../refined-set-2016/4b7p/4b7p_pocket.pdb
REMARK  215 active torsions:
REMARK  status: ('A' for Active; 'I' for Inactive)
REMARK    1  A    between atoms: _1  and  _3
REMARK    2  A    between atoms: _3  and  _4
REMARK    3  A    between atoms: _3  and  _6
REMARK    4  A    between atoms: _6  and  _7
REMARK    5  A    between atoms: _10  and  _12
REMARK    6  A    between atoms: _12  and  _13
REMARK    7  A    between atoms: _12  and  _15
REMARK    8  A    between atoms: _15  and  _16
REMARK    9  A    between atoms: _22  and  _24
REMARK   10  A    between atoms: _24  and  _25
REMARK   11  A    between atoms: _24  and  _27
REMARK   12  A    between atoms: _27  and  _28
REMARK   13  A    between atoms: _31  and  _33
REMARK   14  A    between atoms: _33  and  _34
REMARK   15  A    between atoms: _33  and  _36
REMARK   16  A    between atoms: _36  and  _37
REMARK   17  A    between atoms: _37  and  _38
REMARK   18  A    between atoms: _41  and  _43
REMARK   19  A    between atoms: _43  and  _44
REMARK   20  A    between atoms: _43  and  _46
REMARK   21  A    between atoms: _46  and  _47
REMARK   22  A    between atoms: _50  and  _52
REMARK   23  A    between atoms: _52  and  _53
REMARK   24  A    between atoms: _52  and  _55
REMARK   25  A    between atoms: _55  and  _56
REMARK   26  A    between atoms: _59  and  _61
REMARK   27  A    between atoms: _61  and  _62
REMARK   28  A    between atoms: _61  and  _64
REMARK   29  A    between atoms: _64  and  _65
REMARK   30  A    between atoms: _67  and  _69
REMARK   31  A    between atoms: _69  and  _70
REMARK   32  A    between atoms: _69  and  _72
REMARK   33  A    between atoms: _72  and  _73
REMARK   34  A    between atoms: _78  and  _80
REMARK   35  A    between atoms: _80  and  _81
REMARK   36  A    between atoms: _80  and  _83
REMARK   37  A    between atoms: _83  and  _84
REMARK   38  A    between atoms: _86  and  _88
REMARK   39  A    between atoms: _88  and  _89
REMARK   40  A    between atoms: _88  and  _91
REMARK   41  A    between atoms: _91  and  _92
REMARK   42  A    between atoms: _94  and  _96
REMARK   43  A    between atoms: _96  and  _97
REMARK   44  A    between atoms: _96  and  _99
REMARK   45  A    between atoms: _99  and  _100
REMARK   46  A    between atoms: _103  and  _105
REMARK   47  A    between atoms: _105  and  _106
REMARK   48  A    between atoms: _109  and  _111
REMARK   49  A    between atoms: _111  and  _112
REMARK   50  A    between atoms: _111  and  _114
REMARK   51  A    between atoms: _114  and  _115
REMARK   52  A    between atoms: _118  and  _120
REMARK   53  A    between atoms: _120  and  _121
REMARK   54  A    between atoms: _120  and  _123
REMARK   55  A    between atoms: _123  and  _124
REMARK   56  A    between atoms: _127  and  _129
REMARK   57  A    between atoms: _129  and  _130
REMARK   58  A    between atoms: _129  and  _132
REMARK   59  A    between atoms: _132  and  _133
REMARK   60  A    between atoms: _133  and  _134
REMARK   61  A    between atoms: _134  and  _135
REMARK   62  A    between atoms: _135  and  _136
REMARK   63  A    between atoms: _140  and  _142
REMARK   64  A    between atoms: _142  and  _143
REMARK   65  A    between atoms: _142  and  _145
REMARK   66  A    between atoms: _145  and  _146
REMARK   67  A    between atoms: _149  and  _151
REMARK   68  A    between atoms: _151  and  _152
REMARK   69  A    between atoms: _151  and  _154
REMARK   70  A    between atoms: _154  and  _155
REMARK   71  A    between atoms: _155  and  _156
REMARK   72  A    between atoms: _159  and  _161
REMARK   73  A    between atoms: _161  and  _162
REMARK   74  A    between atoms: _161  and  _164
REMARK   75  A    between atoms: _164  and  _165
REMARK   76  A    between atoms: _168  and  _170
REMARK   77  A    between atoms: _170  and  _171
REMARK   78  A    between atoms: _170  and  _173
REMARK   79  A    between atoms: _176  and  _178
REMARK   80  A    between atoms: _178  and  _179
REMARK   81  A    between atoms: _178  and  _181
REMARK   82  A    between atoms: _181  and  _182
REMARK   83  A    between atoms: _185  and  _187
REMARK   84  A    between atoms: _187  and  _188
REMARK   85  A    between atoms: _187  and  _190
REMARK   86  A    between atoms: _190  and  _191
REMARK   87  A    between atoms: _194  and  _196
REMARK   88  A    between atoms: _196  and  _197
REMARK   89  A    between atoms: _199  and  _201
REMARK   90  A    between atoms: _201  and  _202
REMARK   91  A    between atoms: _201  and  _204
REMARK   92  A    between atoms: _204  and  _205
REMARK   93  A    between atoms: _208  and  _210
REMARK   94  A    between atoms: _210  and  _211
REMARK   95  A    between atoms: _213  and  _215
REMARK   96  A    between atoms: _215  and  _216
REMARK   97  A    between atoms: _215  and  _218
REMARK   98  A    between atoms: _218  and  _219
REMARK   99  A    between atoms: _219  and  _220
REMARK  100  A    between atoms: _222  and  _224
REMARK  101  A    between atoms: _224  and  _225
REMARK  102  A    between atoms: _224  and  _227
REMARK  103  A    between atoms: _227  and  _228
REMARK  104  A    between atoms: _231  and  _233
REMARK  105  A    between atoms: _233  and  _234
REMARK  106  A    between atoms: _237  and  _239
REMARK  107  A    between atoms: _239  and  _240
REMARK  108  A    between atoms: _239  and  _242
REMARK  109  A    between atoms: _242  and  _243
REMARK  110  A    between atoms: _246  and  _248
REMARK  111  A    between atoms: _248  and  _249
REMARK  112  A    between atoms: _248  and  _251
REMARK  113  A    between atoms: _251  and  _252
REMARK  114  A    between atoms: _255  and  _257
REMARK  115  A    between atoms: _257  and  _258
REMARK  116  A    between atoms: _257  and  _260
REMARK  117  A    between atoms: _260  and  _261
REMARK  118  A    between atoms: _266  and  _268
REMARK  119  A    between atoms: _268  and  _269
REMARK  120  A    between atoms: _268  and  _271
REMARK  121  A    between atoms: _271  and  _272
REMARK  122  A    between atoms: _277  and  _279
REMARK  123  A    between atoms: _279  and  _280
REMARK  124  A    between atoms: _279  and  _282
REMARK  125  A    between atoms: _282  and  _283
REMARK  126  A    between atoms: _286  and  _288
REMARK  127  A    between atoms: _288  and  _289
REMARK  128  A    between atoms: _291  and  _293
REMARK  129  A    between atoms: _293  and  _294
REMARK  130  A    between atoms: _293  and  _296
REMARK  131  A    between atoms: _296  and  _297
REMARK  132  A    between atoms: _300  and  _302
REMARK  133  A    between atoms: _302  and  _303
REMARK  134  A    between atoms: _302  and  _305
REMARK  135  A    between atoms: _305  and  _306
REMARK  136  A    between atoms: _306  and  _307
REMARK  137  A    between atoms: _307  and  _308
REMARK  138  A    between atoms: _308  and  _309
REMARK  139  A    between atoms: _313  and  _315
REMARK  140  A    between atoms: _315  and  _316
REMARK  141  A    between atoms: _318  and  _320
REMARK  142  A    between atoms: _320  and  _321
REMARK  143  A    between atoms: _320  and  _323
REMARK  144  A    between atoms: _323  and  _324
REMARK  145  A    between atoms: _330  and  _332
REMARK  146  A    between atoms: _332  and  _333
REMARK  147  A    between atoms: _335  and  _337
REMARK  148  A    between atoms: _337  and  _338
REMARK  149  A    between atoms: _337  and  _340
REMARK  150  A    between atoms: _343  and  _345
REMARK  151  A    between atoms: _345  and  _346
REMARK  152  A    between atoms: _348  and  _350
REMARK  153  A    between atoms: _350  and  _351
REMARK  154  A    between atoms: _350  and  _353
REMARK  155  A    between atoms: _353  and  _354
REMARK  156  A    between atoms: _360  and  _362
REMARK  157  A    between atoms: _362  and  _363
REMARK  158  A    between atoms: _362  and  _365
REMARK  159  A    between atoms: _365  and  _366
REMARK  160  A    between atoms: _371  and  _372
REMARK  161  A    between atoms: _374  and  _376
REMARK  162  A    between atoms: _376  and  _377
REMARK  163  A    between atoms: _376  and  _379
REMARK  164  A    between atoms: _379  and  _380
REMARK  165  A    between atoms: _382  and  _384
REMARK  166  A    between atoms: _384  and  _385
REMARK  167  A    between atoms: _388  and  _390
REMARK  168  A    between atoms: _390  and  _391
REMARK  169  A    between atoms: _390  and  _393
REMARK  170  A    between atoms: _396  and  _398
REMARK  171  A    between atoms: _398  and  _399
REMARK  172  A    between atoms: _398  and  _401
REMARK  173  A    between atoms: _404  and  _406
REMARK  174  A    between atoms: _406  and  _407
REMARK  175  A    between atoms: _406  and  _409
REMARK  176  A    between atoms: _409  and  _410
REMARK  177  A    between atoms: _413  and  _415
REMARK  178  A    between atoms: _415  and  _416
REMARK  179  A    between atoms: _415  and  _418
REMARK  180  A    between atoms: _418  and  _419
REMARK  181  A    between atoms: _422  and  _424
REMARK  182  A    between atoms: _424  and  _425
REMARK  183  A    between atoms: _424  and  _427
REMARK  184  A    between atoms: _427  and  _428
REMARK  185  A    between atoms: _428  and  _429
REMARK  186  A    between atoms: _429  and  _430
REMARK  187  A    between atoms: _430  and  _431
REMARK  188  A    between atoms: _435  and  _437
REMARK  189  A    between atoms: _437  and  _438
REMARK  190  A    between atoms: _437  and  _440
REMARK  191  A    between atoms: _440  and  _441
REMARK  192  A    between atoms: _446  and  _448
REMARK  193  A    between atoms: _448  and  _449
REMARK  194  A    between atoms: _448  and  _451
REMARK  195  A    between atoms: _451  and  _452
REMARK  196  A    between atoms: _457  and  _459
REMARK  197  A    between atoms: _459  and  _460
REMARK  198  A    between atoms: _459  and  _462
REMARK  199  A    between atoms: _462  and  _463
REMARK  200  A    between atoms: _466  and  _468
REMARK  201  A    between atoms: _468  and  _469
REMARK  202  A    between atoms: _471  and  _473
REMARK  203  A    between atoms: _473  and  _474
REMARK  204  A    between atoms: _473  and  _476
REMARK  205  A    between atoms: _476  and  _477
REMARK  206  A    between atoms: _480  and  _482
REMARK  207  A    between atoms: _482  and  _483
REMARK  208  A    between atoms: _482  and  _485
REMARK  209  A    between atoms: _485  and  _486
REMARK  210  A    between atoms: _486  and  _487
REMARK  211  A    between atoms: _487  and  _488
REMARK  212  A    between atoms: _488  and  _489
REMARK  213  A    between atoms: _493  and  _495
REMARK  214  A    between atoms: _495  and  _496
REMARK  215  A    between atoms: _495  and  _498
REMARK                            x       y       z     vdW  Elec       q    Type
REMARK                         _______ _______ _______ _____ _____    ______ ____
ROOT
ATOM      1  O   HOH     1      -0.261  -7.283   9.070  0.00  0.00    +0.000 OA
ENDROOT
TORSDOF 0
REMARK  Name = ../refined-set-2016/4b7p/4b7p_pocket.pdb
REMARK  215 active torsions:
REMARK  status: ('A' for Active; 'I' for Inactive)
REMARK    1  A    between atoms: _1  and  _3
REMARK    2  A    between atoms: _3  and  _4
REMARK    3  A    between atoms: _3  and  _6
REMARK    4  A    between atoms: _6  and  _7
REMARK    5  A    between atoms: _10  and  _12
REMARK    6  A    between atoms: _12  and  _13
REMARK    7  A    between atoms: _12  and  _15
REMARK    8  A    between atoms: _15  and  _16
REMARK    9  A    between atoms: _22  and  _24
REMARK   10  A    between atoms: _24  and  _25
REMARK   11  A    between atoms: _24  and  _27
REMARK   12  A    between atoms: _27  and  _28
REMARK   13  A    between atoms: _31  and  _33
REMARK   14  A    between atoms: _33  and  _34
REMARK   15  A    between atoms: _33  and  _36
REMARK   16  A    between atoms: _36  and  _37
REMARK   17  A    between atoms: _37  and  _38
REMARK   18  A    between atoms: _41  and  _43
REMARK   19  A    between atoms: _43  and  _44
REMARK   20  A    between atoms: _43  and  _46
REMARK   21  A    between atoms: _46  and  _47
REMARK   22  A    between atoms: _50  and  _52
REMARK   23  A    between atoms: _52  and  _53
REMARK   24  A    between atoms: _52  and  _55
REMARK   25  A    between atoms: _55  and  _56
REMARK   26  A    between atoms: _59  and  _61
REMARK   27  A    between atoms: _61  and  _62
REMARK   28  A    between atoms: _61  and  _64
REMARK   29  A    between atoms: _64  and  _65
REMARK   30  A    between atoms: _67  and  _69
REMARK   31  A    between atoms: _69  and  _70
REMARK   32  A    between atoms: _69  and  _72
REMARK   33  A    between atoms: _72  and  _73
REMARK   34  A    between atoms: _78  and  _80
REMARK   35  A    between atoms: _80  and  _81
REMARK   36  A    between atoms: _80  and  _83
REMARK   37  A    between atoms: _83  and  _84
REMARK   38  A    between atoms: _86  and  _88
REMARK   39  A    between atoms: _88  and  _89
REMARK   40  A    between atoms: _88  and  _91
REMARK   41  A    between atoms: _91  and  _92
REMARK   42  A    between atoms: _94  and  _96
REMARK   43  A    between atoms: _96  and  _97
REMARK   44  A    between atoms: _96  and  _99
REMARK   45  A    between atoms: _99  and  _100
REMARK   46  A    between atoms: _103  and  _105
REMARK   47  A    between atoms: _105  and  _106
REMARK   48  A    between atoms: _109  and  _111
REMARK   49  A    between atoms: _111  and  _112
REMARK   50  A    between atoms: _111  and  _114
REMARK   51  A    between atoms: _114  and  _115
REMARK   52  A    between atoms: _118  and  _120
REMARK   53  A    between atoms: _120  and  _121
REMARK   54  A    between atoms: _120  and  _123
REMARK   55  A    between atoms: _123  and  _124
REMARK   56  A    between atoms: _127  and  _129
REMARK   57  A    between atoms: _129  and  _130
REMARK   58  A    between atoms: _129  and  _132
REMARK   59  A    between atoms: _132  and  _133
REMARK   60  A    between atoms: _133  and  _134
REMARK   61  A    between atoms: _134  and  _135
REMARK   62  A    between atoms: _135  and  _136
REMARK   63  A    between atoms: _140  and  _142
REMARK   64  A    between atoms: _142  and  _143
REMARK   65  A    between atoms: _142  and  _145
REMARK   66  A    between atoms: _145  and  _146
REMARK   67  A    between atoms: _149  and  _151
REMARK   68  A    between atoms: _151  and  _152
REMARK   69  A    between atoms: _151  and  _154
REMARK   70  A    between atoms: _154  and  _155
REMARK   71  A    between atoms: _155  and  _156
REMARK   72  A    between atoms: _159  and  _161
REMARK   73  A    between atoms: _161  and  _162
REMARK   74  A    between atoms: _161  and  _164
REMARK   75  A    between atoms: _164  and  _165
REMARK   76  A    between atoms: _168  and  _170
REMARK   77  A    between atoms: _170  and  _171
REMARK   78  A    between atoms: _170  and  _173
REMARK   79  A    between atoms: _176  and  _178
REMARK   80  A    between atoms: _178  and  _179
REMARK   81  A    between atoms: _178  and  _181
REMARK   82  A    between atoms: _181  and  _182
REMARK   83  A    between atoms: _185  and  _187
REMARK   84  A    between atoms: _187  and  _188
REMARK   85  A    between atoms: _187  and  _190
REMARK   86  A    between atoms: _190  and  _191
REMARK   87  A    between atoms: _194  and  _196
REMARK   88  A    between atoms: _196  and  _197
REMARK   89  A    between atoms: _199  and  _201
REMARK   90  A    between atoms: _201  and  _202
REMARK   91  A    between atoms: _201  and  _204
REMARK   92  A    between atoms: _204  and  _205
REMARK   93  A    between atoms: _208  and  _210
REMARK   94  A    between atoms: _210  and  _211
REMARK   95  A    between atoms: _213  and  _215
REMARK   96  A    between atoms: _215  and  _216
REMARK   97  A    between atoms: _215  and  _218
REMARK   98  A    between atoms: _218  and  _219
REMARK   99  A    between atoms: _219  and  _220
REMARK  100  A    between atoms: _222  and  _224
REMARK  101  A    between atoms: _224  and  _225
REMARK  102  A    between atoms: _224  and  _227
REMARK  103  A    between atoms: _227  and  _228
REMARK  104  A    between atoms: _231  and  _233
REMARK  105  A    between atoms: _233  and  _234
REMARK  106  A    between atoms: _237  and  _239
REMARK  107  A    between atoms: _239  and  _240
REMARK  108  A    between atoms: _239  and  _242
REMARK  109  A    between atoms: _242  and  _243
REMARK  110  A    between atoms: _246  and  _248
REMARK  111  A    between atoms: _248  and  _249
REMARK  112  A    between atoms: _248  and  _251
REMARK  113  A    between atoms: _251  and  _252
REMARK  114  A    between atoms: _255  and  _257
REMARK  115  A    between atoms: _257  and  _258
REMARK  116  A    between atoms: _257  and  _260
REMARK  117  A    between atoms: _260  and  _261
REMARK  118  A    between atoms: _266  and  _268
REMARK  119  A    between atoms: _268  and  _269
REMARK  120  A    between atoms: _268  and  _271
REMARK  121  A    between atoms: _271  and  _272
REMARK  122  A    between atoms: _277  and  _279
REMARK  123  A    between atoms: _279  and  _280
REMARK  124  A    between atoms: _279  and  _282
REMARK  125  A    between atoms: _282  and  _283
REMARK  126  A    between atoms: _286  and  _288
REMARK  127  A    between atoms: _288  and  _289
REMARK  128  A    between atoms: _291  and  _293
REMARK  129  A    between atoms: _293  and  _294
REMARK  130  A    between atoms: _293  and  _296
REMARK  131  A    between atoms: _296  and  _297
REMARK  132  A    between atoms: _300  and  _302
REMARK  133  A    between atoms: _302  and  _303
REMARK  134  A    between atoms: _302  and  _305
REMARK  135  A    between atoms: _305  and  _306
REMARK  136  A    between atoms: _306  and  _307
REMARK  137  A    between atoms: _307  and  _308
REMARK  138  A    between atoms: _308  and  _309
REMARK  139  A    between atoms: _313  and  _315
REMARK  140  A    between atoms: _315  and  _316
REMARK  141  A    between atoms: _318  and  _320
REMARK  142  A    between atoms: _320  and  _321
REMARK  143  A    between atoms: _320  and  _323
REMARK  144  A    between atoms: _323  and  _324
REMARK  145  A    between atoms: _330  and  _332
REMARK  146  A    between atoms: _332  and  _333
REMARK  147  A    between atoms: _335  and  _337
REMARK  148  A    between atoms: _337  and  _338
REMARK  149  A    between atoms: _337  and  _340
REMARK  150  A    between atoms: _343  and  _345
REMARK  151  A    between atoms: _345  and  _346
REMARK  152  A    between atoms: _348  and  _350
REMARK  153  A    between atoms: _350  and  _351
REMARK  154  A    between atoms: _350  and  _353
REMARK  155  A    between atoms: _353  and  _354
REMARK  156  A    between atoms: _360  and  _362
REMARK  157  A    between atoms: _362  and  _363
REMARK  158  A    between atoms: _362  and  _365
REMARK  159  A    between atoms: _365  and  _366
REMARK  160  A    between atoms: _371  and  _372
REMARK  161  A    between atoms: _374  and  _376
REMARK  162  A    between atoms: _376  and  _377
REMARK  163  A    between atoms: _376  and  _379
REMARK  164  A    between atoms: _379  and  _380
REMARK  165  A    between atoms: _382  and  _384
REMARK  166  A    between atoms: _384  and  _385
REMARK  167  A    between atoms: _388  and  _390
REMARK  168  A    between atoms: _390  and  _391
REMARK  169  A    between atoms: _390  and  _393
REMARK  170  A    between atoms: _396  and  _398
REMARK  171  A    between atoms: _398  and  _399
REMARK  172  A    between atoms: _398  and  _401
REMARK  173  A    between atoms: _404  and  _406
REMARK  174  A    between atoms: _406  and  _407
REMARK  175  A    between atoms: _406  and  _409
REMARK  176  A    between atoms: _409  and  _410
REMARK  177  A    between atoms: _413  and  _415
REMARK  178  A    between atoms: _415  and  _416
REMARK  179  A    between atoms: _415  and  _418
REMARK  180  A    between atoms: _418  and  _419
REMARK  181  A    between atoms: _422  and  _424
REMARK  182  A    between atoms: _424  and  _425
REMARK  183  A    between atoms: _424  and  _427
REMARK  184  A    between atoms: _427  and  _428
REMARK  185  A    between atoms: _428  and  _429
REMARK  186  A    between atoms: _429  and  _430
REMARK  187  A    between atoms: _430  and  _431
REMARK  188  A    between atoms: _435  and  _437
REMARK  189  A    between atoms: _437  and  _438
REMARK  190  A    between atoms: _437  and  _440
REMARK  191  A    between atoms: _440  and  _441
REMARK  192  A    between atoms: _446  and  _448
REMARK  193  A    between atoms: _448  and  _449
REMARK  194  A    between atoms: _448  and  _451
REMARK  195  A    between atoms: _451  and  _452
REMARK  196  A    between atoms: _457  and  _459
REMARK  197  A    between atoms: _459  and  _460
REMARK  198  A    between atoms: _459  and  _462
REMARK  199  A    between atoms: _462  and  _463
REMARK  200  A    between atoms: _466  and  _468
REMARK  201  A    between atoms: _468  and  _469
REMARK  202  A    between atoms: _471  and  _473
REMARK  203  A    between atoms: _473  and  _474
REMARK  204  A    between atoms: _473  and  _476
REMARK  205  A    between atoms: _476  and  _477
REMARK  206  A    between atoms: _480  and  _482
REMARK  207  A    between atoms: _482  and  _483
REMARK  208  A    between atoms: _482  and  _485
REMARK  209  A    between atoms: _485  and  _486
REMARK  210  A    between atoms: _486  and  _487
REMARK  211  A    between atoms: _487  and  _488
REMARK  212  A    between atoms: _488  and  _489
REMARK  213  A    between atoms: _493  and  _495
REMARK  214  A    between atoms: _495  and  _496
REMARK  215  A    between atoms: _495  and  _498
REMARK                            x       y       z     vdW  Elec       q    Type
REMARK                         _______ _______ _______ _____ _____    ______ ____
ROOT
ATOM      1  O   HOH     1       0.434  -3.318   7.423  0.00  0.00    +0.000 OA
ENDROOT
TORSDOF 0
REMARK  Name = ../refined-set-2016/4b7p/4b7p_pocket.pdb
REMARK  215 active torsions:
REMARK  status: ('A' for Active; 'I' for Inactive)
REMARK    1  A    between atoms: _1  and  _3
REMARK    2  A    between atoms: _3  and  _4
REMARK    3  A    between atoms: _3  and  _6
REMARK    4  A    between atoms: _6  and  _7
REMARK    5  A    between atoms: _10  and  _12
REMARK    6  A    between atoms: _12  and  _13
REMARK    7  A    between atoms: _12  and  _15
REMARK    8  A    between atoms: _15  and  _16
REMARK    9  A    between atoms: _22  and  _24
REMARK   10  A    between atoms: _24  and  _25
REMARK   11  A    between atoms: _24  and  _27
REMARK   12  A    between atoms: _27  and  _28
REMARK   13  A    between atoms: _31  and  _33
REMARK   14  A    between atoms: _33  and  _34
REMARK   15  A    between atoms: _33  and  _36
REMARK   16  A    between atoms: _36  and  _37
REMARK   17  A    between atoms: _37  and  _38
REMARK   18  A    between atoms: _41  and  _43
REMARK   19  A    between atoms: _43  and  _44
REMARK   20  A    between atoms: _43  and  _46
REMARK   21  A    between atoms: _46  and  _47
REMARK   22  A    between atoms: _50  and  _52
REMARK   23  A    between atoms: _52  and  _53
REMARK   24  A    between atoms: _52  and  _55
REMARK   25  A    between atoms: _55  and  _56
REMARK   26  A    between atoms: _59  and  _61
REMARK   27  A    between atoms: _61  and  _62
REMARK   28  A    between atoms: _61  and  _64
REMARK   29  A    between atoms: _64  and  _65
REMARK   30  A    between atoms: _67  and  _69
REMARK   31  A    between atoms: _69  and  _70
REMARK   32  A    between atoms: _69  and  _72
REMARK   33  A    between atoms: _72  and  _73
REMARK   34  A    between atoms: _78  and  _80
REMARK   35  A    between atoms: _80  and  _81
REMARK   36  A    between atoms: _80  and  _83
REMARK   37  A    between atoms: _83  and  _84
REMARK   38  A    between atoms: _86  and  _88
REMARK   39  A    between atoms: _88  and  _89
REMARK   40  A    between atoms: _88  and  _91
REMARK   41  A    between atoms: _91  and  _92
REMARK   42  A    between atoms: _94  and  _96
REMARK   43  A    between atoms: _96  and  _97
REMARK   44  A    between atoms: _96  and  _99
REMARK   45  A    between atoms: _99  and  _100
REMARK   46  A    between atoms: _103  and  _105
REMARK   47  A    between atoms: _105  and  _106
REMARK   48  A    between atoms: _109  and  _111
REMARK   49  A    between atoms: _111  and  _112
REMARK   50  A    between atoms: _111  and  _114
REMARK   51  A    between atoms: _114  and  _115
REMARK   52  A    between atoms: _118  and  _120
REMARK   53  A    between atoms: _120  and  _121
REMARK   54  A    between atoms: _120  and  _123
REMARK   55  A    between atoms: _123  and  _124
REMARK   56  A    between atoms: _127  and  _129
REMARK   57  A    between atoms: _129  and  _130
REMARK   58  A    between atoms: _129  and  _132
REMARK   59  A    between atoms: _132  and  _133
REMARK   60  A    between atoms: _133  and  _134
REMARK   61  A    between atoms: _134  and  _135
REMARK   62  A    between atoms: _135  and  _136
REMARK   63  A    between atoms: _140  and  _142
REMARK   64  A    between atoms: _142  and  _143
REMARK   65  A    between atoms: _142  and  _145
REMARK   66  A    between atoms: _145  and  _146
REMARK   67  A    between atoms: _149  and  _151
REMARK   68  A    between atoms: _151  and  _152
REMARK   69  A    between atoms: _151  and  _154
REMARK   70  A    between atoms: _154  and  _155
REMARK   71  A    between atoms: _155  and  _156
REMARK   72  A    between atoms: _159  and  _161
REMARK   73  A    between atoms: _161  and  _162
REMARK   74  A    between atoms: _161  and  _164
REMARK   75  A    between atoms: _164  and  _165
REMARK   76  A    between atoms: _168  and  _170
REMARK   77  A    between atoms: _170  and  _171
REMARK   78  A    between atoms: _170  and  _173
REMARK   79  A    between atoms: _176  and  _178
REMARK   80  A    between atoms: _178  and  _179
REMARK   81  A    between atoms: _178  and  _181
REMARK   82  A    between atoms: _181  and  _182
REMARK   83  A    between atoms: _185  and  _187
REMARK   84  A    between atoms: _187  and  _188
REMARK   85  A    between atoms: _187  and  _190
REMARK   86  A    between atoms: _190  and  _191
REMARK   87  A    between atoms: _194  and  _196
REMARK   88  A    between atoms: _196  and  _197
REMARK   89  A    between atoms: _199  and  _201
REMARK   90  A    between atoms: _201  and  _202
REMARK   91  A    between atoms: _201  and  _204
REMARK   92  A    between atoms: _204  and  _205
REMARK   93  A    between atoms: _208  and  _210
REMARK   94  A    between atoms: _210  and  _211
REMARK   95  A    between atoms: _213  and  _215
REMARK   96  A    between atoms: _215  and  _216
REMARK   97  A    between atoms: _215  and  _218
REMARK   98  A    between atoms: _218  and  _219
REMARK   99  A    between atoms: _219  and  _220
REMARK  100  A    between atoms: _222  and  _224
REMARK  101  A    between atoms: _224  and  _225
REMARK  102  A    between atoms: _224  and  _227
REMARK  103  A    between atoms: _227  and  _228
REMARK  104  A    between atoms: _231  and  _233
REMARK  105  A    between atoms: _233  and  _234
REMARK  106  A    between atoms: _237  and  _239
REMARK  107  A    between atoms: _239  and  _240
REMARK  108  A    between atoms: _239  and  _242
REMARK  109  A    between atoms: _242  and  _243
REMARK  110  A    between atoms: _246  and  _248
REMARK  111  A    between atoms: _248  and  _249
REMARK  112  A    between atoms: _248  and  _251
REMARK  113  A    between atoms: _251  and  _252
REMARK  114  A    between atoms: _255  and  _257
REMARK  115  A    between atoms: _257  and  _258
REMARK  116  A    between atoms: _257  and  _260
REMARK  117  A    between atoms: _260  and  _261
REMARK  118  A    between atoms: _266  and  _268
REMARK  119  A    between atoms: _268  and  _269
REMARK  120  A    between atoms: _268  and  _271
REMARK  121  A    between atoms: _271  and  _272
REMARK  122  A    between atoms: _277  and  _279
REMARK  123  A    between atoms: _279  and  _280
REMARK  124  A    between atoms: _279  and  _282
REMARK  125  A    between atoms: _282  and  _283
REMARK  126  A    between atoms: _286  and  _288
REMARK  127  A    between atoms: _288  and  _289
REMARK  128  A    between atoms: _291  and  _293
REMARK  129  A    between atoms: _293  and  _294
REMARK  130  A    between atoms: _293  and  _296
REMARK  131  A    between atoms: _296  and  _297
REMARK  132  A    between atoms: _300  and  _302
REMARK  133  A    between atoms: _302  and  _303
REMARK  134  A    between atoms: _302  and  _305
REMARK  135  A    between atoms: _305  and  _306
REMARK  136  A    between atoms: _306  and  _307
REMARK  137  A    between atoms: _307  and  _308
REMARK  138  A    between atoms: _308  and  _309
REMARK  139  A    between atoms: _313  and  _315
REMARK  140  A    between atoms: _315  and  _316
REMARK  141  A    between atoms: _318  and  _320
REMARK  142  A    between atoms: _320  and  _321
REMARK  143  A    between atoms: _320  and  _323
REMARK  144  A    between atoms: _323  and  _324
REMARK  145  A    between atoms: _330  and  _332
REMARK  146  A    between atoms: _332  and  _333
REMARK  147  A    between atoms: _335  and  _337
REMARK  148  A    between atoms: _337  and  _338
REMARK  149  A    between atoms: _337  and  _340
REMARK  150  A    between atoms: _343  and  _345
REMARK  151  A    between atoms: _345  and  _346
REMARK  152  A    between atoms: _348  and  _350
REMARK  153  A    between atoms: _350  and  _351
REMARK  154  A    between atoms: _350  and  _353
REMARK  155  A    between atoms: _353  and  _354
REMARK  156  A    between atoms: _360  and  _362
REMARK  157  A    between atoms: _362  and  _363
REMARK  158  A    between atoms: _362  and  _365
REMARK  159  A    between atoms: _365  and  _366
REMARK  160  A    between atoms: _371  and  _372
REMARK  161  A    between atoms: _374  and  _376
REMARK  162  A    between atoms: _376  and  _377
REMARK  163  A    between atoms: _376  and  _379
REMARK  164  A    between atoms: _379  and  _380
REMARK  165  A    between atoms: _382  and  _384
REMARK  166  A    between atoms: _384  and  _385
REMARK  167  A    between atoms: _388  and  _390
REMARK  168  A    between atoms: _390  and  _391
REMARK  169  A    between atoms: _390  and  _393
REMARK  170  A    between atoms: _396  and  _398
REMARK  171  A    between atoms: _398  and  _399
REMARK  172  A    between atoms: _398  and  _401
REMARK  173  A    between atoms: _404  and  _406
REMARK  174  A    between atoms: _406  and  _407
REMARK  175  A    between atoms: _406  and  _409
REMARK  176  A    between atoms: _409  and  _410
REMARK  177  A    between atoms: _413  and  _415
REMARK  178  A    between atoms: _415  and  _416
REMARK  179  A    between atoms: _415  and  _418
REMARK  180  A    between atoms: _418  and  _419
REMARK  181  A    between atoms: _422  and  _424
REMARK  182  A    between atoms: _424  and  _425
REMARK  183  A    between atoms: _424  and  _427
REMARK  184  A    between atoms: _427  and  _428
REMARK  185  A    between atoms: _428  and  _429
REMARK  186  A    between atoms: _429  and  _430
REMARK  187  A    between atoms: _430  and  _431
REMARK  188  A    between atoms: _435  and  _437
REMARK  189  A    between atoms: _437  and  _438
REMARK  190  A    between atoms: _437  and  _440
REMARK  191  A    between atoms: _440  and  _441
REMARK  192  A    between atoms: _446  and  _448
REMARK  193  A    between atoms: _448  and  _449
REMARK  194  A    between atoms: _448  and  _451
REMARK  195  A    between atoms: _451  and  _452
REMARK  196  A    between atoms: _457  and  _459
REMARK  197  A    between atoms: _459  and  _460
REMARK  198  A    between atoms: _459  and  _462
REMARK  199  A    between atoms: _462  and  _463
REMARK  200  A    between atoms: _466  and  _468
REMARK  201  A    between atoms: _468  and  _469
REMARK  202  A    between atoms: _471  and  _473
REMARK  203  A    between atoms: _473  and  _474
REMARK  204  A    between atoms: _473  and  _476
REMARK  205  A    between atoms: _476  and  _477
REMARK  206  A    between atoms: _480  and  _482
REMARK  207  A    between atoms: _482  and  _483
REMARK  208  A    between atoms: _482  and  _485
REMARK  209  A    between atoms: _485  and  _486
REMARK  210  A    between atoms: _486  and  _487
REMARK  211  A    between atoms: _487  and  _488
REMARK  212  A    between atoms: _488  and  _489
REMARK  213  A    between atoms: _493  and  _495
REMARK  214  A    between atoms: _495  and  _496
REMARK  215  A    between atoms: _495  and  _498
REMARK                            x       y       z     vdW  Elec       q    Type
REMARK                         _______ _______ _______ _____ _____    ______ ____
ROOT
ATOM      1  O   HOH     1       2.377  -6.478   8.155  0.00  0.00    +0.000 OA
ENDROOT
TORSDOF 0
REMARK  Name = ../refined-set-2016/4b7p/4b7p_pocket.pdb
REMARK  215 active torsions:
REMARK  status: ('A' for Active; 'I' for Inactive)
REMARK    1  A    between atoms: _1  and  _3
REMARK    2  A    between atoms: _3  and  _4
REMARK    3  A    between atoms: _3  and  _6
REMARK    4  A    between atoms: _6  and  _7
REMARK    5  A    between atoms: _10  and  _12
REMARK    6  A    between atoms: _12  and  _13
REMARK    7  A    between atoms: _12  and  _15
REMARK    8  A    between atoms: _15  and  _16
REMARK    9  A    between atoms: _22  and  _24
REMARK   10  A    between atoms: _24  and  _25
REMARK   11  A    between atoms: _24  and  _27
REMARK   12  A    between atoms: _27  and  _28
REMARK   13  A    between atoms: _31  and  _33
REMARK   14  A    between atoms: _33  and  _34
REMARK   15  A    between atoms: _33  and  _36
REMARK   16  A    between atoms: _36  and  _37
REMARK   17  A    between atoms: _37  and  _38
REMARK   18  A    between atoms: _41  and  _43
REMARK   19  A    between atoms: _43  and  _44
REMARK   20  A    between atoms: _43  and  _46
REMARK   21  A    between atoms: _46  and  _47
REMARK   22  A    between atoms: _50  and  _52
REMARK   23  A    between atoms: _52  and  _53
REMARK   24  A    between atoms: _52  and  _55
REMARK   25  A    between atoms: _55  and  _56
REMARK   26  A    between atoms: _59  and  _61
REMARK   27  A    between atoms: _61  and  _62
REMARK   28  A    between atoms: _61  and  _64
REMARK   29  A    between atoms: _64  and  _65
REMARK   30  A    between atoms: _67  and  _69
REMARK   31  A    between atoms: _69  and  _70
REMARK   32  A    between atoms: _69  and  _72
REMARK   33  A    between atoms: _72  and  _73
REMARK   34  A    between atoms: _78  and  _80
REMARK   35  A    between atoms: _80  and  _81
REMARK   36  A    between atoms: _80  and  _83
REMARK   37  A    between atoms: _83  and  _84
REMARK   38  A    between atoms: _86  and  _88
REMARK   39  A    between atoms: _88  and  _89
REMARK   40  A    between atoms: _88  and  _91
REMARK   41  A    between atoms: _91  and  _92
REMARK   42  A    between atoms: _94  and  _96
REMARK   43  A    between atoms: _96  and  _97
REMARK   44  A    between atoms: _96  and  _99
REMARK   45  A    between atoms: _99  and  _100
REMARK   46  A    between atoms: _103  and  _105
REMARK   47  A    between atoms: _105  and  _106
REMARK   48  A    between atoms: _109  and  _111
REMARK   49  A    between atoms: _111  and  _112
REMARK   50  A    between atoms: _111  and  _114
REMARK   51  A    between atoms: _114  and  _115
REMARK   52  A    between atoms: _118  and  _120
REMARK   53  A    between atoms: _120  and  _121
REMARK   54  A    between atoms: _120  and  _123
REMARK   55  A    between atoms: _123  and  _124
REMARK   56  A    between atoms: _127  and  _129
REMARK   57  A    between atoms: _129  and  _130
REMARK   58  A    between atoms: _129  and  _132
REMARK   59  A    between atoms: _132  and  _133
REMARK   60  A    between atoms: _133  and  _134
REMARK   61  A    between atoms: _134  and  _135
REMARK   62  A    between atoms: _135  and  _136
REMARK   63  A    between atoms: _140  and  _142
REMARK   64  A    between atoms: _142  and  _143
REMARK   65  A    between atoms: _142  and  _145
REMARK   66  A    between atoms: _145  and  _146
REMARK   67  A    between atoms: _149  and  _151
REMARK   68  A    between atoms: _151  and  _152
REMARK   69  A    between atoms: _151  and  _154
REMARK   70  A    between atoms: _154  and  _155
REMARK   71  A    between atoms: _155  and  _156
REMARK   72  A    between atoms: _159  and  _161
REMARK   73  A    between atoms: _161  and  _162
REMARK   74  A    between atoms: _161  and  _164
REMARK   75  A    between atoms: _164  and  _165
REMARK   76  A    between atoms: _168  and  _170
REMARK   77  A    between atoms: _170  and  _171
REMARK   78  A    between atoms: _170  and  _173
REMARK   79  A    between atoms: _176  and  _178
REMARK   80  A    between atoms: _178  and  _179
REMARK   81  A    between atoms: _178  and  _181
REMARK   82  A    between atoms: _181  and  _182
REMARK   83  A    between atoms: _185  and  _187
REMARK   84  A    between atoms: _187  and  _188
REMARK   85  A    between atoms: _187  and  _190
REMARK   86  A    between atoms: _190  and  _191
REMARK   87  A    between atoms: _194  and  _196
REMARK   88  A    between atoms: _196  and  _197
REMARK   89  A    between atoms: _199  and  _201
REMARK   90  A    between atoms: _201  and  _202
REMARK   91  A    between atoms: _201  and  _204
REMARK   92  A    between atoms: _204  and  _205
REMARK   93  A    between atoms: _208  and  _210
REMARK   94  A    between atoms: _210  and  _211
REMARK   95  A    between atoms: _213  and  _215
REMARK   96  A    between atoms: _215  and  _216
REMARK   97  A    between atoms: _215  and  _218
REMARK   98  A    between atoms: _218  and  _219
REMARK   99  A    between atoms: _219  and  _220
REMARK  100  A    between atoms: _222  and  _224
REMARK  101  A    between atoms: _224  and  _225
REMARK  102  A    between atoms: _224  and  _227
REMARK  103  A    between atoms: _227  and  _228
REMARK  104  A    between atoms: _231  and  _233
REMARK  105  A    between atoms: _233  and  _234
REMARK  106  A    between atoms: _237  and  _239
REMARK  107  A    between atoms: _239  and  _240
REMARK  108  A    between atoms: _239  and  _242
REMARK  109  A    between atoms: _242  and  _243
REMARK  110  A    between atoms: _246  and  _248
REMARK  111  A    between atoms: _248  and  _249
REMARK  112  A    between atoms: _248  and  _251
REMARK  113  A    between atoms: _251  and  _252
REMARK  114  A    between atoms: _255  and  _257
REMARK  115  A    between atoms: _257  and  _258
REMARK  116  A    between atoms: _257  and  _260
REMARK  117  A    between atoms: _260  and  _261
REMARK  118  A    between atoms: _266  and  _268
REMARK  119  A    between atoms: _268  and  _269
REMARK  120  A    between atoms: _268  and  _271
REMARK  121  A    between atoms: _271  and  _272
REMARK  122  A    between atoms: _277  and  _279
REMARK  123  A    between atoms: _279  and  _280
REMARK  124  A    between atoms: _279  and  _282
REMARK  125  A    between atoms: _282  and  _283
REMARK  126  A    between atoms: _286  and  _288
REMARK  127  A    between atoms: _288  and  _289
REMARK  128  A    between atoms: _291  and  _293
REMARK  129  A    between atoms: _293  and  _294
REMARK  130  A    between atoms: _293  and  _296
REMARK  131  A    between atoms: _296  and  _297
REMARK  132  A    between atoms: _300  and  _302
REMARK  133  A    between atoms: _302  and  _303
REMARK  134  A    between atoms: _302  and  _305
REMARK  135  A    between atoms: _305  and  _306
REMARK  136  A    between atoms: _306  and  _307
REMARK  137  A    between atoms: _307  and  _308
REMARK  138  A    between atoms: _308  and  _309
REMARK  139  A    between atoms: _313  and  _315
REMARK  140  A    between atoms: _315  and  _316
REMARK  141  A    between atoms: _318  and  _320
REMARK  142  A    between atoms: _320  and  _321
REMARK  143  A    between atoms: _320  and  _323
REMARK  144  A    between atoms: _323  and  _324
REMARK  145  A    between atoms: _330  and  _332
REMARK  146  A    between atoms: _332  and  _333
REMARK  147  A    between atoms: _335  and  _337
REMARK  148  A    between atoms: _337  and  _338
REMARK  149  A    between atoms: _337  and  _340
REMARK  150  A    between atoms: _343  and  _345
REMARK  151  A    between atoms: _345  and  _346
REMARK  152  A    between atoms: _348  and  _350
REMARK  153  A    between atoms: _350  and  _351
REMARK  154  A    between atoms: _350  and  _353
REMARK  155  A    between atoms: _353  and  _354
REMARK  156  A    between atoms: _360  and  _362
REMARK  157  A    between atoms: _362  and  _363
REMARK  158  A    between atoms: _362  and  _365
REMARK  159  A    between atoms: _365  and  _366
REMARK  160  A    between atoms: _371  and  _372
REMARK  161  A    between atoms: _374  and  _376
REMARK  162  A    between atoms: _376  and  _377
REMARK  163  A    between atoms: _376  and  _379
REMARK  164  A    between atoms: _379  and  _380
REMARK  165  A    between atoms: _382  and  _384
REMARK  166  A    between atoms: _384  and  _385
REMARK  167  A    between atoms: _388  and  _390
REMARK  168  A    between atoms: _390  and  _391
REMARK  169  A    between atoms: _390  and  _393
REMARK  170  A    between atoms: _396  and  _398
REMARK  171  A    between atoms: _398  and  _399
REMARK  172  A    between atoms: _398  and  _401
REMARK  173  A    between atoms: _404  and  _406
REMARK  174  A    between atoms: _406  and  _407
REMARK  175  A    between atoms: _406  and  _409
REMARK  176  A    between atoms: _409  and  _410
REMARK  177  A    between atoms: _413  and  _415
REMARK  178  A    between atoms: _415  and  _416
REMARK  179  A    between atoms: _415  and  _418
REMARK  180  A    between atoms: _418  and  _419
REMARK  181  A    between atoms: _422  and  _424
REMARK  182  A    between atoms: _424  and  _425
REMARK  183  A    between atoms: _424  and  _427
REMARK  184  A    between atoms: _427  and  _428
REMARK  185  A    between atoms: _428  and  _429
REMARK  186  A    between atoms: _429  and  _430
REMARK  187  A    between atoms: _430  and  _431
REMARK  188  A    between atoms: _435  and  _437
REMARK  189  A    between atoms: _437  and  _438
REMARK  190  A    between atoms: _437  and  _440
REMARK  191  A    between atoms: _440  and  _441
REMARK  192  A    between atoms: _446  and  _448
REMARK  193  A    between atoms: _448  and  _449
REMARK  194  A    between atoms: _448  and  _451
REMARK  195  A    between atoms: _451  and  _452
REMARK  196  A    between atoms: _457  and  _459
REMARK  197  A    between atoms: _459  and  _460
REMARK  198  A    between atoms: _459  and  _462
REMARK  199  A    between atoms: _462  and  _463
REMARK  200  A    between atoms: _466  and  _468
REMARK  201  A    between atoms: _468  and  _469
REMARK  202  A    between atoms: _471  and  _473
REMARK  203  A    between atoms: _473  and  _474
REMARK  204  A    between atoms: _473  and  _476
REMARK  205  A    between atoms: _476  and  _477
REMARK  206  A    between atoms: _480  and  _482
REMARK  207  A    between atoms: _482  and  _483
REMARK  208  A    between atoms: _482  and  _485
REMARK  209  A    between atoms: _485  and  _486
REMARK  210  A    between atoms: _486  and  _487
REMARK  211  A    between atoms: _487  and  _488
REMARK  212  A    between atoms: _488  and  _489
REMARK  213  A    between atoms: _493  and  _495
REMARK  214  A    between atoms: _495  and  _496
REMARK  215  A    between atoms: _495  and  _498
REMARK                            x       y       z     vdW  Elec       q    Type
REMARK                         _______ _______ _______ _____ _____    ______ ____
ROOT
ATOM      1  O   HOH     1      -5.153  -1.143  10.942  0.00  0.00    +0.000 OA
ENDROOT
TORSDOF 0
REMARK  Name = ../refined-set-2016/4b7p/4b7p_pocket.pdb
REMARK  215 active torsions:
REMARK  status: ('A' for Active; 'I' for Inactive)
REMARK    1  A    between atoms: _1  and  _3
REMARK    2  A    between atoms: _3  and  _4
REMARK    3  A    between atoms: _3  and  _6
REMARK    4  A    between atoms: _6  and  _7
REMARK    5  A    between atoms: _10  and  _12
REMARK    6  A    between atoms: _12  and  _13
REMARK    7  A    between atoms: _12  and  _15
REMARK    8  A    between atoms: _15  and  _16
REMARK    9  A    between atoms: _22  and  _24
REMARK   10  A    between atoms: _24  and  _25
REMARK   11  A    between atoms: _24  and  _27
REMARK   12  A    between atoms: _27  and  _28
REMARK   13  A    between atoms: _31  and  _33
REMARK   14  A    between atoms: _33  and  _34
REMARK   15  A    between atoms: _33  and  _36
REMARK   16  A    between atoms: _36  and  _37
REMARK   17  A    between atoms: _37  and  _38
REMARK   18  A    between atoms: _41  and  _43
REMARK   19  A    between atoms: _43  and  _44
REMARK   20  A    between atoms: _43  and  _46
REMARK   21  A    between atoms: _46  and  _47
REMARK   22  A    between atoms: _50  and  _52
REMARK   23  A    between atoms: _52  and  _53
REMARK   24  A    between atoms: _52  and  _55
REMARK   25  A    between atoms: _55  and  _56
REMARK   26  A    between atoms: _59  and  _61
REMARK   27  A    between atoms: _61  and  _62
REMARK   28  A    between atoms: _61  and  _64
REMARK   29  A    between atoms: _64  and  _65
REMARK   30  A    between atoms: _67  and  _69
REMARK   31  A    between atoms: _69  and  _70
REMARK   32  A    between atoms: _69  and  _72
REMARK   33  A    between atoms: _72  and  _73
REMARK   34  A    between atoms: _78  and  _80
REMARK   35  A    between atoms: _80  and  _81
REMARK   36  A    between atoms: _80  and  _83
REMARK   37  A    between atoms: _83  and  _84
REMARK   38  A    between atoms: _86  and  _88
REMARK   39  A    between atoms: _88  and  _89
REMARK   40  A    between atoms: _88  and  _91
REMARK   41  A    between atoms: _91  and  _92
REMARK   42  A    between atoms: _94  and  _96
REMARK   43  A    between atoms: _96  and  _97
REMARK   44  A    between atoms: _96  and  _99
REMARK   45  A    between atoms: _99  and  _100
REMARK   46  A    between atoms: _103  and  _105
REMARK   47  A    between atoms: _105  and  _106
REMARK   48  A    between atoms: _109  and  _111
REMARK   49  A    between atoms: _111  and  _112
REMARK   50  A    between atoms: _111  and  _114
REMARK   51  A    between atoms: _114  and  _115
REMARK   52  A    between atoms: _118  and  _120
REMARK   53  A    between atoms: _120  and  _121
REMARK   54  A    between atoms: _120  and  _123
REMARK   55  A    between atoms: _123  and  _124
REMARK   56  A    between atoms: _127  and  _129
REMARK   57  A    between atoms: _129  and  _130
REMARK   58  A    between atoms: _129  and  _132
REMARK   59  A    between atoms: _132  and  _133
REMARK   60  A    between atoms: _133  and  _134
REMARK   61  A    between atoms: _134  and  _135
REMARK   62  A    between atoms: _135  and  _136
REMARK   63  A    between atoms: _140  and  _142
REMARK   64  A    between atoms: _142  and  _143
REMARK   65  A    between atoms: _142  and  _145
REMARK   66  A    between atoms: _145  and  _146
REMARK   67  A    between atoms: _149  and  _151
REMARK   68  A    between atoms: _151  and  _152
REMARK   69  A    between atoms: _151  and  _154
REMARK   70  A    between atoms: _154  and  _155
REMARK   71  A    between atoms: _155  and  _156
REMARK   72  A    between atoms: _159  and  _161
REMARK   73  A    between atoms: _161  and  _162
REMARK   74  A    between atoms: _161  and  _164
REMARK   75  A    between atoms: _164  and  _165
REMARK   76  A    between atoms: _168  and  _170
REMARK   77  A    between atoms: _170  and  _171
REMARK   78  A    between atoms: _170  and  _173
REMARK   79  A    between atoms: _176  and  _178
REMARK   80  A    between atoms: _178  and  _179
REMARK   81  A    between atoms: _178  and  _181
REMARK   82  A    between atoms: _181  and  _182
REMARK   83  A    between atoms: _185  and  _187
REMARK   84  A    between atoms: _187  and  _188
REMARK   85  A    between atoms: _187  and  _190
REMARK   86  A    between atoms: _190  and  _191
REMARK   87  A    between atoms: _194  and  _196
REMARK   88  A    between atoms: _196  and  _197
REMARK   89  A    between atoms: _199  and  _201
REMARK   90  A    between atoms: _201  and  _202
REMARK   91  A    between atoms: _201  and  _204
REMARK   92  A    between atoms: _204  and  _205
REMARK   93  A    between atoms: _208  and  _210
REMARK   94  A    between atoms: _210  and  _211
REMARK   95  A    between atoms: _213  and  _215
REMARK   96  A    between atoms: _215  and  _216
REMARK   97  A    between atoms: _215  and  _218
REMARK   98  A    between atoms: _218  and  _219
REMARK   99  A    between atoms: _219  and  _220
REMARK  100  A    between atoms: _222  and  _224
REMARK  101  A    between atoms: _224  and  _225
REMARK  102  A    between atoms: _224  and  _227
REMARK  103  A    between atoms: _227  and  _228
REMARK  104  A    between atoms: _231  and  _233
REMARK  105  A    between atoms: _233  and  _234
REMARK  106  A    between atoms: _237  and  _239
REMARK  107  A    between atoms: _239  and  _240
REMARK  108  A    between atoms: _239  and  _242
REMARK  109  A    between atoms: _242  and  _243
REMARK  110  A    between atoms: _246  and  _248
REMARK  111  A    between atoms: _248  and  _249
REMARK  112  A    between atoms: _248  and  _251
REMARK  113  A    between atoms: _251  and  _252
REMARK  114  A    between atoms: _255  and  _257
REMARK  115  A    between atoms: _257  and  _258
REMARK  116  A    between atoms: _257  and  _260
REMARK  117  A    between atoms: _260  and  _261
REMARK  118  A    between atoms: _266  and  _268
REMARK  119  A    between atoms: _268  and  _269
REMARK  120  A    between atoms: _268  and  _271
REMARK  121  A    between atoms: _271  and  _272
REMARK  122  A    between atoms: _277  and  _279
REMARK  123  A    between atoms: _279  and  _280
REMARK  124  A    between atoms: _279  and  _282
REMARK  125  A    between atoms: _282  and  _283
REMARK  126  A    between atoms: _286  and  _288
REMARK  127  A    between atoms: _288  and  _289
REMARK  128  A    between atoms: _291  and  _293
REMARK  129  A    between atoms: _293  and  _294
REMARK  130  A    between atoms: _293  and  _296
REMARK  131  A    between atoms: _296  and  _297
REMARK  132  A    between atoms: _300  and  _302
REMARK  133  A    between atoms: _302  and  _303
REMARK  134  A    between atoms: _302  and  _305
REMARK  135  A    between atoms: _305  and  _306
REMARK  136  A    between atoms: _306  and  _307
REMARK  137  A    between atoms: _307  and  _308
REMARK  138  A    between atoms: _308  and  _309
REMARK  139  A    between atoms: _313  and  _315
REMARK  140  A    between atoms: _315  and  _316
REMARK  141  A    between atoms: _318  and  _320
REMARK  142  A    between atoms: _320  and  _321
REMARK  143  A    between atoms: _320  and  _323
REMARK  144  A    between atoms: _323  and  _324
REMARK  145  A    between atoms: _330  and  _332
REMARK  146  A    between atoms: _332  and  _333
REMARK  147  A    between atoms: _335  and  _337
REMARK  148  A    between atoms: _337  and  _338
REMARK  149  A    between atoms: _337  and  _340
REMARK  150  A    between atoms: _343  and  _345
REMARK  151  A    between atoms: _345  and  _346
REMARK  152  A    between atoms: _348  and  _350
REMARK  153  A    between atoms: _350  and  _351
REMARK  154  A    between atoms: _350  and  _353
REMARK  155  A    between atoms: _353  and  _354
REMARK  156  A    between atoms: _360  and  _362
REMARK  157  A    between atoms: _362  and  _363
REMARK  158  A    between atoms: _362  and  _365
REMARK  159  A    between atoms: _365  and  _366
REMARK  160  A    between atoms: _371  and  _372
REMARK  161  A    between atoms: _374  and  _376
REMARK  162  A    between atoms: _376  and  _377
REMARK  163  A    between atoms: _376  and  _379
REMARK  164  A    between atoms: _379  and  _380
REMARK  165  A    between atoms: _382  and  _384
REMARK  166  A    between atoms: _384  and  _385
REMARK  167  A    between atoms: _388  and  _390
REMARK  168  A    between atoms: _390  and  _391
REMARK  169  A    between atoms: _390  and  _393
REMARK  170  A    between atoms: _396  and  _398
REMARK  171  A    between atoms: _398  and  _399
REMARK  172  A    between atoms: _398  and  _401
REMARK  173  A    between atoms: _404  and  _406
REMARK  174  A    between atoms: _406  and  _407
REMARK  175  A    between atoms: _406  and  _409
REMARK  176  A    between atoms: _409  and  _410
REMARK  177  A    between atoms: _413  and  _415
REMARK  178  A    between atoms: _415  and  _416
REMARK  179  A    between atoms: _415  and  _418
REMARK  180  A    between atoms: _418  and  _419
REMARK  181  A    between atoms: _422  and  _424
REMARK  182  A    between atoms: _424  and  _425
REMARK  183  A    between atoms: _424  and  _427
REMARK  184  A    between atoms: _427  and  _428
REMARK  185  A    between atoms: _428  and  _429
REMARK  186  A    between atoms: _429  and  _430
REMARK  187  A    between atoms: _430  and  _431
REMARK  188  A    between atoms: _435  and  _437
REMARK  189  A    between atoms: _437  and  _438
REMARK  190  A    between atoms: _437  and  _440
REMARK  191  A    between atoms: _440  and  _441
REMARK  192  A    between atoms: _446  and  _448
REMARK  193  A    between atoms: _448  and  _449
REMARK  194  A    between atoms: _448  and  _451
REMARK  195  A    between atoms: _451  and  _452
REMARK  196  A    between atoms: _457  and  _459
REMARK  197  A    between atoms: _459  and  _460
REMARK  198  A    between atoms: _459  and  _462
REMARK  199  A    between atoms: _462  and  _463
REMARK  200  A    between atoms: _466  and  _468
REMARK  201  A    between atoms: _468  and  _469
REMARK  202  A    between atoms: _471  and  _473
REMARK  203  A    between atoms: _473  and  _474
REMARK  204  A    between atoms: _473  and  _476
REMARK  205  A    between atoms: _476  and  _477
REMARK  206  A    between atoms: _480  and  _482
REMARK  207  A    between atoms: _482  and  _483
REMARK  208  A    between atoms: _482  and  _485
REMARK  209  A    between atoms: _485  and  _486
REMARK  210  A    between atoms: _486  and  _487
REMARK  211  A    between atoms: _487  and  _488
REMARK  212  A    between atoms: _488  and  _489
REMARK  213  A    between atoms: _493  and  _495
REMARK  214  A    between atoms: _495  and  _496
REMARK  215  A    between atoms: _495  and  _498
REMARK                            x       y       z     vdW  Elec       q    Type
REMARK                         _______ _______ _______ _____ _____    ______ ____
ROOT
ATOM      1  O   HOH     1      -3.454   1.522   9.034  0.00  0.00    +0.000 OA
ENDROOT
TORSDOF 0
REMARK  Name = ../refined-set-2016/4b7p/4b7p_pocket.pdb
REMARK  215 active torsions:
REMARK  status: ('A' for Active; 'I' for Inactive)
REMARK    1  A    between atoms: _1  and  _3
REMARK    2  A    between atoms: _3  and  _4
REMARK    3  A    between atoms: _3  and  _6
REMARK    4  A    between atoms: _6  and  _7
REMARK    5  A    between atoms: _10  and  _12
REMARK    6  A    between atoms: _12  and  _13
REMARK    7  A    between atoms: _12  and  _15
REMARK    8  A    between atoms: _15  and  _16
REMARK    9  A    between atoms: _22  and  _24
REMARK   10  A    between atoms: _24  and  _25
REMARK   11  A    between atoms: _24  and  _27
REMARK   12  A    between atoms: _27  and  _28
REMARK   13  A    between atoms: _31  and  _33
REMARK   14  A    between atoms: _33  and  _34
REMARK   15  A    between atoms: _33  and  _36
REMARK   16  A    between atoms: _36  and  _37
REMARK   17  A    between atoms: _37  and  _38
REMARK   18  A    between atoms: _41  and  _43
REMARK   19  A    between atoms: _43  and  _44
REMARK   20  A    between atoms: _43  and  _46
REMARK   21  A    between atoms: _46  and  _47
REMARK   22  A    between atoms: _50  and  _52
REMARK   23  A    between atoms: _52  and  _53
REMARK   24  A    between atoms: _52  and  _55
REMARK   25  A    between atoms: _55  and  _56
REMARK   26  A    between atoms: _59  and  _61
REMARK   27  A    between atoms: _61  and  _62
REMARK   28  A    between atoms: _61  and  _64
REMARK   29  A    between atoms: _64  and  _65
REMARK   30  A    between atoms: _67  and  _69
REMARK   31  A    between atoms: _69  and  _70
REMARK   32  A    between atoms: _69  and  _72
REMARK   33  A    between atoms: _72  and  _73
REMARK   34  A    between atoms: _78  and  _80
REMARK   35  A    between atoms: _80  and  _81
REMARK   36  A    between atoms: _80  and  _83
REMARK   37  A    between atoms: _83  and  _84
REMARK   38  A    between atoms: _86  and  _88
REMARK   39  A    between atoms: _88  and  _89
REMARK   40  A    between atoms: _88  and  _91
REMARK   41  A    between atoms: _91  and  _92
REMARK   42  A    between atoms: _94  and  _96
REMARK   43  A    between atoms: _96  and  _97
REMARK   44  A    between atoms: _96  and  _99
REMARK   45  A    between atoms: _99  and  _100
REMARK   46  A    between atoms: _103  and  _105
REMARK   47  A    between atoms: _105  and  _106
REMARK   48  A    between atoms: _109  and  _111
REMARK   49  A    between atoms: _111  and  _112
REMARK   50  A    between atoms: _111  and  _114
REMARK   51  A    between atoms: _114  and  _115
REMARK   52  A    between atoms: _118  and  _120
REMARK   53  A    between atoms: _120  and  _121
REMARK   54  A    between atoms: _120  and  _123
REMARK   55  A    between atoms: _123  and  _124
REMARK   56  A    between atoms: _127  and  _129
REMARK   57  A    between atoms: _129  and  _130
REMARK   58  A    between atoms: _129  and  _132
REMARK   59  A    between atoms: _132  and  _133
REMARK   60  A    between atoms: _133  and  _134
REMARK   61  A    between atoms: _134  and  _135
REMARK   62  A    between atoms: _135  and  _136
REMARK   63  A    between atoms: _140  and  _142
REMARK   64  A    between atoms: _142  and  _143
REMARK   65  A    between atoms: _142  and  _145
REMARK   66  A    between atoms: _145  and  _146
REMARK   67  A    between atoms: _149  and  _151
REMARK   68  A    between atoms: _151  and  _152
REMARK   69  A    between atoms: _151  and  _154
REMARK   70  A    between atoms: _154  and  _155
REMARK   71  A    between atoms: _155  and  _156
REMARK   72  A    between atoms: _159  and  _161
REMARK   73  A    between atoms: _161  and  _162
REMARK   74  A    between atoms: _161  and  _164
REMARK   75  A    between atoms: _164  and  _165
REMARK   76  A    between atoms: _168  and  _170
REMARK   77  A    between atoms: _170  and  _171
REMARK   78  A    between atoms: _170  and  _173
REMARK   79  A    between atoms: _176  and  _178
REMARK   80  A    between atoms: _178  and  _179
REMARK   81  A    between atoms: _178  and  _181
REMARK   82  A    between atoms: _181  and  _182
REMARK   83  A    between atoms: _185  and  _187
REMARK   84  A    between atoms: _187  and  _188
REMARK   85  A    between atoms: _187  and  _190
REMARK   86  A    between atoms: _190  and  _191
REMARK   87  A    between atoms: _194  and  _196
REMARK   88  A    between atoms: _196  and  _197
REMARK   89  A    between atoms: _199  and  _201
REMARK   90  A    between atoms: _201  and  _202
REMARK   91  A    between atoms: _201  and  _204
REMARK   92  A    between atoms: _204  and  _205
REMARK   93  A    between atoms: _208  and  _210
REMARK   94  A    between atoms: _210  and  _211
REMARK   95  A    between atoms: _213  and  _215
REMARK   96  A    between atoms: _215  and  _216
REMARK   97  A    between atoms: _215  and  _218
REMARK   98  A    between atoms: _218  and  _219
REMARK   99  A    between atoms: _219  and  _220
REMARK  100  A    between atoms: _222  and  _224
REMARK  101  A    between atoms: _224  and  _225
REMARK  102  A    between atoms: _224  and  _227
REMARK  103  A    between atoms: _227  and  _228
REMARK  104  A    between atoms: _231  and  _233
REMARK  105  A    between atoms: _233  and  _234
REMARK  106  A    between atoms: _237  and  _239
REMARK  107  A    between atoms: _239  and  _240
REMARK  108  A    between atoms: _239  and  _242
REMARK  109  A    between atoms: _242  and  _243
REMARK  110  A    between atoms: _246  and  _248
REMARK  111  A    between atoms: _248  and  _249
REMARK  112  A    between atoms: _248  and  _251
REMARK  113  A    between atoms: _251  and  _252
REMARK  114  A    between atoms: _255  and  _257
REMARK  115  A    between atoms: _257  and  _258
REMARK  116  A    between atoms: _257  and  _260
REMARK  117  A    between atoms: _260  and  _261
REMARK  118  A    between atoms: _266  and  _268
REMARK  119  A    between atoms: _268  and  _269
REMARK  120  A    between atoms: _268  and  _271
REMARK  121  A    between atoms: _271  and  _272
REMARK  122  A    between atoms: _277  and  _279
REMARK  123  A    between atoms: _279  and  _280
REMARK  124  A    between atoms: _279  and  _282
REMARK  125  A    between atoms: _282  and  _283
REMARK  126  A    between atoms: _286  and  _288
REMARK  127  A    between atoms: _288  and  _289
REMARK  128  A    between atoms: _291  and  _293
REMARK  129  A    between atoms: _293  and  _294
REMARK  130  A    between atoms: _293  and  _296
REMARK  131  A    between atoms: _296  and  _297
REMARK  132  A    between atoms: _300  and  _302
REMARK  133  A    between atoms: _302  and  _303
REMARK  134  A    between atoms: _302  and  _305
REMARK  135  A    between atoms: _305  and  _306
REMARK  136  A    between atoms: _306  and  _307
REMARK  137  A    between atoms: _307  and  _308
REMARK  138  A    between atoms: _308  and  _309
REMARK  139  A    between atoms: _313  and  _315
REMARK  140  A    between atoms: _315  and  _316
REMARK  141  A    between atoms: _318  and  _320
REMARK  142  A    between atoms: _320  and  _321
REMARK  143  A    between atoms: _320  and  _323
REMARK  144  A    between atoms: _323  and  _324
REMARK  145  A    between atoms: _330  and  _332
REMARK  146  A    between atoms: _332  and  _333
REMARK  147  A    between atoms: _335  and  _337
REMARK  148  A    between atoms: _337  and  _338
REMARK  149  A    between atoms: _337  and  _340
REMARK  150  A    between atoms: _343  and  _345
REMARK  151  A    between atoms: _345  and  _346
REMARK  152  A    between atoms: _348  and  _350
REMARK  153  A    between atoms: _350  and  _351
REMARK  154  A    between atoms: _350  and  _353
REMARK  155  A    between atoms: _353  and  _354
REMARK  156  A    between atoms: _360  and  _362
REMARK  157  A    between atoms: _362  and  _363
REMARK  158  A    between atoms: _362  and  _365
REMARK  159  A    between atoms: _365  and  _366
REMARK  160  A    between atoms: _371  and  _372
REMARK  161  A    between atoms: _374  and  _376
REMARK  162  A    between atoms: _376  and  _377
REMARK  163  A    between atoms: _376  and  _379
REMARK  164  A    between atoms: _379  and  _380
REMARK  165  A    between atoms: _382  and  _384
REMARK  166  A    between atoms: _384  and  _385
REMARK  167  A    between atoms: _388  and  _390
REMARK  168  A    between atoms: _390  and  _391
REMARK  169  A    between atoms: _390  and  _393
REMARK  170  A    between atoms: _396  and  _398
REMARK  171  A    between atoms: _398  and  _399
REMARK  172  A    between atoms: _398  and  _401
REMARK  173  A    between atoms: _404  and  _406
REMARK  174  A    between atoms: _406  and  _407
REMARK  175  A    between atoms: _406  and  _409
REMARK  176  A    between atoms: _409  and  _410
REMARK  177  A    between atoms: _413  and  _415
REMARK  178  A    between atoms: _415  and  _416
REMARK  179  A    between atoms: _415  and  _418
REMARK  180  A    between atoms: _418  and  _419
REMARK  181  A    between atoms: _422  and  _424
REMARK  182  A    between atoms: _424  and  _425
REMARK  183  A    between atoms: _424  and  _427
REMARK  184  A    between atoms: _427  and  _428
REMARK  185  A    between atoms: _428  and  _429
REMARK  186  A    between atoms: _429  and  _430
REMARK  187  A    between atoms: _430  and  _431
REMARK  188  A    between atoms: _435  and  _437
REMARK  189  A    between atoms: _437  and  _438
REMARK  190  A    between atoms: _437  and  _440
REMARK  191  A    between atoms: _440  and  _441
REMARK  192  A    between atoms: _446  and  _448
REMARK  193  A    between atoms: _448  and  _449
REMARK  194  A    between atoms: _448  and  _451
REMARK  195  A    between atoms: _451  and  _452
REMARK  196  A    between atoms: _457  and  _459
REMARK  197  A    between atoms: _459  and  _460
REMARK  198  A    between atoms: _459  and  _462
REMARK  199  A    between atoms: _462  and  _463
REMARK  200  A    between atoms: _466  and  _468
REMARK  201  A    between atoms: _468  and  _469
REMARK  202  A    between atoms: _471  and  _473
REMARK  203  A    between atoms: _473  and  _474
REMARK  204  A    between atoms: _473  and  _476
REMARK  205  A    between atoms: _476  and  _477
REMARK  206  A    between atoms: _480  and  _482
REMARK  207  A    between atoms: _482  and  _483
REMARK  208  A    between atoms: _482  and  _485
REMARK  209  A    between atoms: _485  and  _486
REMARK  210  A    between atoms: _486  and  _487
REMARK  211  A    between atoms: _487  and  _488
REMARK  212  A    between atoms: _488  and  _489
REMARK  213  A    between atoms: _493  and  _495
REMARK  214  A    between atoms: _495  and  _496
REMARK  215  A    between atoms: _495  and  _498
REMARK                            x       y       z     vdW  Elec       q    Type
REMARK                         _______ _______ _______ _____ _____    ______ ____
ROOT
ATOM      1  O   HOH     1      -2.264  -5.299   7.126  0.00  0.00    +0.000 OA
ENDROOT
TORSDOF 0
REMARK  Name = ../refined-set-2016/4b7p/4b7p_pocket.pdb
REMARK  215 active torsions:
REMARK  status: ('A' for Active; 'I' for Inactive)
REMARK    1  A    between atoms: _1  and  _3
REMARK    2  A    between atoms: _3  and  _4
REMARK    3  A    between atoms: _3  and  _6
REMARK    4  A    between atoms: _6  and  _7
REMARK    5  A    between atoms: _10  and  _12
REMARK    6  A    between atoms: _12  and  _13
REMARK    7  A    between atoms: _12  and  _15
REMARK    8  A    between atoms: _15  and  _16
REMARK    9  A    between atoms: _22  and  _24
REMARK   10  A    between atoms: _24  and  _25
REMARK   11  A    between atoms: _24  and  _27
REMARK   12  A    between atoms: _27  and  _28
REMARK   13  A    between atoms: _31  and  _33
REMARK   14  A    between atoms: _33  and  _34
REMARK   15  A    between atoms: _33  and  _36
REMARK   16  A    between atoms: _36  and  _37
REMARK   17  A    between atoms: _37  and  _38
REMARK   18  A    between atoms: _41  and  _43
REMARK   19  A    between atoms: _43  and  _44
REMARK   20  A    between atoms: _43  and  _46
REMARK   21  A    between atoms: _46  and  _47
REMARK   22  A    between atoms: _50  and  _52
REMARK   23  A    between atoms: _52  and  _53
REMARK   24  A    between atoms: _52  and  _55
REMARK   25  A    between atoms: _55  and  _56
REMARK   26  A    between atoms: _59  and  _61
REMARK   27  A    between atoms: _61  and  _62
REMARK   28  A    between atoms: _61  and  _64
REMARK   29  A    between atoms: _64  and  _65
REMARK   30  A    between atoms: _67  and  _69
REMARK   31  A    between atoms: _69  and  _70
REMARK   32  A    between atoms: _69  and  _72
REMARK   33  A    between atoms: _72  and  _73
REMARK   34  A    between atoms: _78  and  _80
REMARK   35  A    between atoms: _80  and  _81
REMARK   36  A    between atoms: _80  and  _83
REMARK   37  A    between atoms: _83  and  _84
REMARK   38  A    between atoms: _86  and  _88
REMARK   39  A    between atoms: _88  and  _89
REMARK   40  A    between atoms: _88  and  _91
REMARK   41  A    between atoms: _91  and  _92
REMARK   42  A    between atoms: _94  and  _96
REMARK   43  A    between atoms: _96  and  _97
REMARK   44  A    between atoms: _96  and  _99
REMARK   45  A    between atoms: _99  and  _100
REMARK   46  A    between atoms: _103  and  _105
REMARK   47  A    between atoms: _105  and  _106
REMARK   48  A    between atoms: _109  and  _111
REMARK   49  A    between atoms: _111  and  _112
REMARK   50  A    between atoms: _111  and  _114
REMARK   51  A    between atoms: _114  and  _115
REMARK   52  A    between atoms: _118  and  _120
REMARK   53  A    between atoms: _120  and  _121
REMARK   54  A    between atoms: _120  and  _123
REMARK   55  A    between atoms: _123  and  _124
REMARK   56  A    between atoms: _127  and  _129
REMARK   57  A    between atoms: _129  and  _130
REMARK   58  A    between atoms: _129  and  _132
REMARK   59  A    between atoms: _132  and  _133
REMARK   60  A    between atoms: _133  and  _134
REMARK   61  A    between atoms: _134  and  _135
REMARK   62  A    between atoms: _135  and  _136
REMARK   63  A    between atoms: _140  and  _142
REMARK   64  A    between atoms: _142  and  _143
REMARK   65  A    between atoms: _142  and  _145
REMARK   66  A    between atoms: _145  and  _146
REMARK   67  A    between atoms: _149  and  _151
REMARK   68  A    between atoms: _151  and  _152
REMARK   69  A    between atoms: _151  and  _154
REMARK   70  A    between atoms: _154  and  _155
REMARK   71  A    between atoms: _155  and  _156
REMARK   72  A    between atoms: _159  and  _161
REMARK   73  A    between atoms: _161  and  _162
REMARK   74  A    between atoms: _161  and  _164
REMARK   75  A    between atoms: _164  and  _165
REMARK   76  A    between atoms: _168  and  _170
REMARK   77  A    between atoms: _170  and  _171
REMARK   78  A    between atoms: _170  and  _173
REMARK   79  A    between atoms: _176  and  _178
REMARK   80  A    between atoms: _178  and  _179
REMARK   81  A    between atoms: _178  and  _181
REMARK   82  A    between atoms: _181  and  _182
REMARK   83  A    between atoms: _185  and  _187
REMARK   84  A    between atoms: _187  and  _188
REMARK   85  A    between atoms: _187  and  _190
REMARK   86  A    between atoms: _190  and  _191
REMARK   87  A    between atoms: _194  and  _196
REMARK   88  A    between atoms: _196  and  _197
REMARK   89  A    between atoms: _199  and  _201
REMARK   90  A    between atoms: _201  and  _202
REMARK   91  A    between atoms: _201  and  _204
REMARK   92  A    between atoms: _204  and  _205
REMARK   93  A    between atoms: _208  and  _210
REMARK   94  A    between atoms: _210  and  _211
REMARK   95  A    between atoms: _213  and  _215
REMARK   96  A    between atoms: _215  and  _216
REMARK   97  A    between atoms: _215  and  _218
REMARK   98  A    between atoms: _218  and  _219
REMARK   99  A    between atoms: _219  and  _220
REMARK  100  A    between atoms: _222  and  _224
REMARK  101  A    between atoms: _224  and  _225
REMARK  102  A    between atoms: _224  and  _227
REMARK  103  A    between atoms: _227  and  _228
REMARK  104  A    between atoms: _231  and  _233
REMARK  105  A    between atoms: _233  and  _234
REMARK  106  A    between atoms: _237  and  _239
REMARK  107  A    between atoms: _239  and  _240
REMARK  108  A    between atoms: _239  and  _242
REMARK  109  A    between atoms: _242  and  _243
REMARK  110  A    between atoms: _246  and  _248
REMARK  111  A    between atoms: _248  and  _249
REMARK  112  A    between atoms: _248  and  _251
REMARK  113  A    between atoms: _251  and  _252
REMARK  114  A    between atoms: _255  and  _257
REMARK  115  A    between atoms: _257  and  _258
REMARK  116  A    between atoms: _257  and  _260
REMARK  117  A    between atoms: _260  and  _261
REMARK  118  A    between atoms: _266  and  _268
REMARK  119  A    between atoms: _268  and  _269
REMARK  120  A    between atoms: _268  and  _271
REMARK  121  A    between atoms: _271  and  _272
REMARK  122  A    between atoms: _277  and  _279
REMARK  123  A    between atoms: _279  and  _280
REMARK  124  A    between atoms: _279  and  _282
REMARK  125  A    between atoms: _282  and  _283
REMARK  126  A    between atoms: _286  and  _288
REMARK  127  A    between atoms: _288  and  _289
REMARK  128  A    between atoms: _291  and  _293
REMARK  129  A    between atoms: _293  and  _294
REMARK  130  A    between atoms: _293  and  _296
REMARK  131  A    between atoms: _296  and  _297
REMARK  132  A    between atoms: _300  and  _302
REMARK  133  A    between atoms: _302  and  _303
REMARK  134  A    between atoms: _302  and  _305
REMARK  135  A    between atoms: _305  and  _306
REMARK  136  A    between atoms: _306  and  _307
REMARK  137  A    between atoms: _307  and  _308
REMARK  138  A    between atoms: _308  and  _309
REMARK  139  A    between atoms: _313  and  _315
REMARK  140  A    between atoms: _315  and  _316
REMARK  141  A    between atoms: _318  and  _320
REMARK  142  A    between atoms: _320  and  _321
REMARK  143  A    between atoms: _320  and  _323
REMARK  144  A    between atoms: _323  and  _324
REMARK  145  A    between atoms: _330  and  _332
REMARK  146  A    between atoms: _332  and  _333
REMARK  147  A    between atoms: _335  and  _337
REMARK  148  A    between atoms: _337  and  _338
REMARK  149  A    between atoms: _337  and  _340
REMARK  150  A    between atoms: _343  and  _345
REMARK  151  A    between atoms: _345  and  _346
REMARK  152  A    between atoms: _348  and  _350
REMARK  153  A    between atoms: _350  and  _351
REMARK  154  A    between atoms: _350  and  _353
REMARK  155  A    between atoms: _353  and  _354
REMARK  156  A    between atoms: _360  and  _362
REMARK  157  A    between atoms: _362  and  _363
REMARK  158  A    between atoms: _362  and  _365
REMARK  159  A    between atoms: _365  and  _366
REMARK  160  A    between atoms: _371  and  _372
REMARK  161  A    between atoms: _374  and  _376
REMARK  162  A    between atoms: _376  and  _377
REMARK  163  A    between atoms: _376  and  _379
REMARK  164  A    between atoms: _379  and  _380
REMARK  165  A    between atoms: _382  and  _384
REMARK  166  A    between atoms: _384  and  _385
REMARK  167  A    between atoms: _388  and  _390
REMARK  168  A    between atoms: _390  and  _391
REMARK  169  A    between atoms: _390  and  _393
REMARK  170  A    between atoms: _396  and  _398
REMARK  171  A    between atoms: _398  and  _399
REMARK  172  A    between atoms: _398  and  _401
REMARK  173  A    between atoms: _404  and  _406
REMARK  174  A    between atoms: _406  and  _407
REMARK  175  A    between atoms: _406  and  _409
REMARK  176  A    between atoms: _409  and  _410
REMARK  177  A    between atoms: _413  and  _415
REMARK  178  A    between atoms: _415  and  _416
REMARK  179  A    between atoms: _415  and  _418
REMARK  180  A    between atoms: _418  and  _419
REMARK  181  A    between atoms: _422  and  _424
REMARK  182  A    between atoms: _424  and  _425
REMARK  183  A    between atoms: _424  and  _427
REMARK  184  A    between atoms: _427  and  _428
REMARK  185  A    between atoms: _428  and  _429
REMARK  186  A    between atoms: _429  and  _430
REMARK  187  A    between atoms: _430  and  _431
REMARK  188  A    between atoms: _435  and  _437
REMARK  189  A    between atoms: _437  and  _438
REMARK  190  A    between atoms: _437  and  _440
REMARK  191  A    between atoms: _440  and  _441
REMARK  192  A    between atoms: _446  and  _448
REMARK  193  A    between atoms: _448  and  _449
REMARK  194  A    between atoms: _448  and  _451
REMARK  195  A    between atoms: _451  and  _452
REMARK  196  A    between atoms: _457  and  _459
REMARK  197  A    between atoms: _459  and  _460
REMARK  198  A    between atoms: _459  and  _462
REMARK  199  A    between atoms: _462  and  _463
REMARK  200  A    between atoms: _466  and  _468
REMARK  201  A    between atoms: _468  and  _469
REMARK  202  A    between atoms: _471  and  _473
REMARK  203  A    between atoms: _473  and  _474
REMARK  204  A    between atoms: _473  and  _476
REMARK  205  A    between atoms: _476  and  _477
REMARK  206  A    between atoms: _480  and  _482
REMARK  207  A    between atoms: _482  and  _483
REMARK  208  A    between atoms: _482  and  _485
REMARK  209  A    between atoms: _485  and  _486
REMARK  210  A    between atoms: _486  and  _487
REMARK  211  A    between atoms: _487  and  _488
REMARK  212  A    between atoms: _488  and  _489
REMARK  213  A    between atoms: _493  and  _495
REMARK  214  A    between atoms: _495  and  _496
REMARK  215  A    between atoms: _495  and  _498
REMARK                            x       y       z     vdW  Elec       q    Type
REMARK                         _______ _______ _______ _____ _____    ______ ____
ROOT
ATOM      1  O   HOH     1       1.408  -1.958   3.246  0.00  0.00    +0.000 OA
ENDROOT
TORSDOF 0
REMARK  Name = ../refined-set-2016/4b7p/4b7p_pocket.pdb
REMARK  215 active torsions:
REMARK  status: ('A' for Active; 'I' for Inactive)
REMARK    1  A    between atoms: _1  and  _3
REMARK    2  A    between atoms: _3  and  _4
REMARK    3  A    between atoms: _3  and  _6
REMARK    4  A    between atoms: _6  and  _7
REMARK    5  A    between atoms: _10  and  _12
REMARK    6  A    between atoms: _12  and  _13
REMARK    7  A    between atoms: _12  and  _15
REMARK    8  A    between atoms: _15  and  _16
REMARK    9  A    between atoms: _22  and  _24
REMARK   10  A    between atoms: _24  and  _25
REMARK   11  A    between atoms: _24  and  _27
REMARK   12  A    between atoms: _27  and  _28
REMARK   13  A    between atoms: _31  and  _33
REMARK   14  A    between atoms: _33  and  _34
REMARK   15  A    between atoms: _33  and  _36
REMARK   16  A    between atoms: _36  and  _37
REMARK   17  A    between atoms: _37  and  _38
REMARK   18  A    between atoms: _41  and  _43
REMARK   19  A    between atoms: _43  and  _44
REMARK   20  A    between atoms: _43  and  _46
REMARK   21  A    between atoms: _46  and  _47
REMARK   22  A    between atoms: _50  and  _52
REMARK   23  A    between atoms: _52  and  _53
REMARK   24  A    between atoms: _52  and  _55
REMARK   25  A    between atoms: _55  and  _56
REMARK   26  A    between atoms: _59  and  _61
REMARK   27  A    between atoms: _61  and  _62
REMARK   28  A    between atoms: _61  and  _64
REMARK   29  A    between atoms: _64  and  _65
REMARK   30  A    between atoms: _67  and  _69
REMARK   31  A    between atoms: _69  and  _70
REMARK   32  A    between atoms: _69  and  _72
REMARK   33  A    between atoms: _72  and  _73
REMARK   34  A    between atoms: _78  and  _80
REMARK   35  A    between atoms: _80  and  _81
REMARK   36  A    between atoms: _80  and  _83
REMARK   37  A    between atoms: _83  and  _84
REMARK   38  A    between atoms: _86  and  _88
REMARK   39  A    between atoms: _88  and  _89
REMARK   40  A    between atoms: _88  and  _91
REMARK   41  A    between atoms: _91  and  _92
REMARK   42  A    between atoms: _94  and  _96
REMARK   43  A    between atoms: _96  and  _97
REMARK   44  A    between atoms: _96  and  _99
REMARK   45  A    between atoms: _99  and  _100
REMARK   46  A    between atoms: _103  and  _105
REMARK   47  A    between atoms: _105  and  _106
REMARK   48  A    between atoms: _109  and  _111
REMARK   49  A    between atoms: _111  and  _112
REMARK   50  A    between atoms: _111  and  _114
REMARK   51  A    between atoms: _114  and  _115
REMARK   52  A    between atoms: _118  and  _120
REMARK   53  A    between atoms: _120  and  _121
REMARK   54  A    between atoms: _120  and  _123
REMARK   55  A    between atoms: _123  and  _124
REMARK   56  A    between atoms: _127  and  _129
REMARK   57  A    between atoms: _129  and  _130
REMARK   58  A    between atoms: _129  and  _132
REMARK   59  A    between atoms: _132  and  _133
REMARK   60  A    between atoms: _133  and  _134
REMARK   61  A    between atoms: _134  and  _135
REMARK   62  A    between atoms: _135  and  _136
REMARK   63  A    between atoms: _140  and  _142
REMARK   64  A    between atoms: _142  and  _143
REMARK   65  A    between atoms: _142  and  _145
REMARK   66  A    between atoms: _145  and  _146
REMARK   67  A    between atoms: _149  and  _151
REMARK   68  A    between atoms: _151  and  _152
REMARK   69  A    between atoms: _151  and  _154
REMARK   70  A    between atoms: _154  and  _155
REMARK   71  A    between atoms: _155  and  _156
REMARK   72  A    between atoms: _159  and  _161
REMARK   73  A    between atoms: _161  and  _162
REMARK   74  A    between atoms: _161  and  _164
REMARK   75  A    between atoms: _164  and  _165
REMARK   76  A    between atoms: _168  and  _170
REMARK   77  A    between atoms: _170  and  _171
REMARK   78  A    between atoms: _170  and  _173
REMARK   79  A    between atoms: _176  and  _178
REMARK   80  A    between atoms: _178  and  _179
REMARK   81  A    between atoms: _178  and  _181
REMARK   82  A    between atoms: _181  and  _182
REMARK   83  A    between atoms: _185  and  _187
REMARK   84  A    between atoms: _187  and  _188
REMARK   85  A    between atoms: _187  and  _190
REMARK   86  A    between atoms: _190  and  _191
REMARK   87  A    between atoms: _194  and  _196
REMARK   88  A    between atoms: _196  and  _197
REMARK   89  A    between atoms: _199  and  _201
REMARK   90  A    between atoms: _201  and  _202
REMARK   91  A    between atoms: _201  and  _204
REMARK   92  A    between atoms: _204  and  _205
REMARK   93  A    between atoms: _208  and  _210
REMARK   94  A    between atoms: _210  and  _211
REMARK   95  A    between atoms: _213  and  _215
REMARK   96  A    between atoms: _215  and  _216
REMARK   97  A    between atoms: _215  and  _218
REMARK   98  A    between atoms: _218  and  _219
REMARK   99  A    between atoms: _219  and  _220
REMARK  100  A    between atoms: _222  and  _224
REMARK  101  A    between atoms: _224  and  _225
REMARK  102  A    between atoms: _224  and  _227
REMARK  103  A    between atoms: _227  and  _228
REMARK  104  A    between atoms: _231  and  _233
REMARK  105  A    between atoms: _233  and  _234
REMARK  106  A    between atoms: _237  and  _239
REMARK  107  A    between atoms: _239  and  _240
REMARK  108  A    between atoms: _239  and  _242
REMARK  109  A    between atoms: _242  and  _243
REMARK  110  A    between atoms: _246  and  _248
REMARK  111  A    between atoms: _248  and  _249
REMARK  112  A    between atoms: _248  and  _251
REMARK  113  A    between atoms: _251  and  _252
REMARK  114  A    between atoms: _255  and  _257
REMARK  115  A    between atoms: _257  and  _258
REMARK  116  A    between atoms: _257  and  _260
REMARK  117  A    between atoms: _260  and  _261
REMARK  118  A    between atoms: _266  and  _268
REMARK  119  A    between atoms: _268  and  _269
REMARK  120  A    between atoms: _268  and  _271
REMARK  121  A    between atoms: _271  and  _272
REMARK  122  A    between atoms: _277  and  _279
REMARK  123  A    between atoms: _279  and  _280
REMARK  124  A    between atoms: _279  and  _282
REMARK  125  A    between atoms: _282  and  _283
REMARK  126  A    between atoms: _286  and  _288
REMARK  127  A    between atoms: _288  and  _289
REMARK  128  A    between atoms: _291  and  _293
REMARK  129  A    between atoms: _293  and  _294
REMARK  130  A    between atoms: _293  and  _296
REMARK  131  A    between atoms: _296  and  _297
REMARK  132  A    between atoms: _300  and  _302
REMARK  133  A    between atoms: _302  and  _303
REMARK  134  A    between atoms: _302  and  _305
REMARK  135  A    between atoms: _305  and  _306
REMARK  136  A    between atoms: _306  and  _307
REMARK  137  A    between atoms: _307  and  _308
REMARK  138  A    between atoms: _308  and  _309
REMARK  139  A    between atoms: _313  and  _315
REMARK  140  A    between atoms: _315  and  _316
REMARK  141  A    between atoms: _318  and  _320
REMARK  142  A    between atoms: _320  and  _321
REMARK  143  A    between atoms: _320  and  _323
REMARK  144  A    between atoms: _323  and  _324
REMARK  145  A    between atoms: _330  and  _332
REMARK  146  A    between atoms: _332  and  _333
REMARK  147  A    between atoms: _335  and  _337
REMARK  148  A    between atoms: _337  and  _338
REMARK  149  A    between atoms: _337  and  _340
REMARK  150  A    between atoms: _343  and  _345
REMARK  151  A    between atoms: _345  and  _346
REMARK  152  A    between atoms: _348  and  _350
REMARK  153  A    between atoms: _350  and  _351
REMARK  154  A    between atoms: _350  and  _353
REMARK  155  A    between atoms: _353  and  _354
REMARK  156  A    between atoms: _360  and  _362
REMARK  157  A    between atoms: _362  and  _363
REMARK  158  A    between atoms: _362  and  _365
REMARK  159  A    between atoms: _365  and  _366
REMARK  160  A    between atoms: _371  and  _372
REMARK  161  A    between atoms: _374  and  _376
REMARK  162  A    between atoms: _376  and  _377
REMARK  163  A    between atoms: _376  and  _379
REMARK  164  A    between atoms: _379  and  _380
REMARK  165  A    between atoms: _382  and  _384
REMARK  166  A    between atoms: _384  and  _385
REMARK  167  A    between atoms: _388  and  _390
REMARK  168  A    between atoms: _390  and  _391
REMARK  169  A    between atoms: _390  and  _393
REMARK  170  A    between atoms: _396  and  _398
REMARK  171  A    between atoms: _398  and  _399
REMARK  172  A    between atoms: _398  and  _401
REMARK  173  A    between atoms: _404  and  _406
REMARK  174  A    between atoms: _406  and  _407
REMARK  175  A    between atoms: _406  and  _409
REMARK  176  A    between atoms: _409  and  _410
REMARK  177  A    between atoms: _413  and  _415
REMARK  178  A    between atoms: _415  and  _416
REMARK  179  A    between atoms: _415  and  _418
REMARK  180  A    between atoms: _418  and  _419
REMARK  181  A    between atoms: _422  and  _424
REMARK  182  A    between atoms: _424  and  _425
REMARK  183  A    between atoms: _424  and  _427
REMARK  184  A    between atoms: _427  and  _428
REMARK  185  A    between atoms: _428  and  _429
REMARK  186  A    between atoms: _429  and  _430
REMARK  187  A    between atoms: _430  and  _431
REMARK  188  A    between atoms: _435  and  _437
REMARK  189  A    between atoms: _437  and  _438
REMARK  190  A    between atoms: _437  and  _440
REMARK  191  A    between atoms: _440  and  _441
REMARK  192  A    between atoms: _446  and  _448
REMARK  193  A    between atoms: _448  and  _449
REMARK  194  A    between atoms: _448  and  _451
REMARK  195  A    between atoms: _451  and  _452
REMARK  196  A    between atoms: _457  and  _459
REMARK  197  A    between atoms: _459  and  _460
REMARK  198  A    between atoms: _459  and  _462
REMARK  199  A    between atoms: _462  and  _463
REMARK  200  A    between atoms: _466  and  _468
REMARK  201  A    between atoms: _468  and  _469
REMARK  202  A    between atoms: _471  and  _473
REMARK  203  A    between atoms: _473  and  _474
REMARK  204  A    between atoms: _473  and  _476
REMARK  205  A    between atoms: _476  and  _477
REMARK  206  A    between atoms: _480  and  _482
REMARK  207  A    between atoms: _482  and  _483
REMARK  208  A    between atoms: _482  and  _485
REMARK  209  A    between atoms: _485  and  _486
REMARK  210  A    between atoms: _486  and  _487
REMARK  211  A    between atoms: _487  and  _488
REMARK  212  A    between atoms: _488  and  _489
REMARK  213  A    between atoms: _493  and  _495
REMARK  214  A    between atoms: _495  and  _496
REMARK  215  A    between atoms: _495  and  _498
REMARK                            x       y       z     vdW  Elec       q    Type
REMARK                         _______ _______ _______ _____ _____    ______ ____
ROOT
ATOM      1  O   HOH     1       0.843  -5.616   0.472  0.00  0.00    +0.000 OA
ENDROOT
TORSDOF 0
REMARK  Name = ../refined-set-2016/4b7p/4b7p_pocket.pdb
REMARK  215 active torsions:
REMARK  status: ('A' for Active; 'I' for Inactive)
REMARK    1  A    between atoms: _1  and  _3
REMARK    2  A    between atoms: _3  and  _4
REMARK    3  A    between atoms: _3  and  _6
REMARK    4  A    between atoms: _6  and  _7
REMARK    5  A    between atoms: _10  and  _12
REMARK    6  A    between atoms: _12  and  _13
REMARK    7  A    between atoms: _12  and  _15
REMARK    8  A    between atoms: _15  and  _16
REMARK    9  A    between atoms: _22  and  _24
REMARK   10  A    between atoms: _24  and  _25
REMARK   11  A    between atoms: _24  and  _27
REMARK   12  A    between atoms: _27  and  _28
REMARK   13  A    between atoms: _31  and  _33
REMARK   14  A    between atoms: _33  and  _34
REMARK   15  A    between atoms: _33  and  _36
REMARK   16  A    between atoms: _36  and  _37
REMARK   17  A    between atoms: _37  and  _38
REMARK   18  A    between atoms: _41  and  _43
REMARK   19  A    between atoms: _43  and  _44
REMARK   20  A    between atoms: _43  and  _46
REMARK   21  A    between atoms: _46  and  _47
REMARK   22  A    between atoms: _50  and  _52
REMARK   23  A    between atoms: _52  and  _53
REMARK   24  A    between atoms: _52  and  _55
REMARK   25  A    between atoms: _55  and  _56
REMARK   26  A    between atoms: _59  and  _61
REMARK   27  A    between atoms: _61  and  _62
REMARK   28  A    between atoms: _61  and  _64
REMARK   29  A    between atoms: _64  and  _65
REMARK   30  A    between atoms: _67  and  _69
REMARK   31  A    between atoms: _69  and  _70
REMARK   32  A    between atoms: _69  and  _72
REMARK   33  A    between atoms: _72  and  _73
REMARK   34  A    between atoms: _78  and  _80
REMARK   35  A    between atoms: _80  and  _81
REMARK   36  A    between atoms: _80  and  _83
REMARK   37  A    between atoms: _83  and  _84
REMARK   38  A    between atoms: _86  and  _88
REMARK   39  A    between atoms: _88  and  _89
REMARK   40  A    between atoms: _88  and  _91
REMARK   41  A    between atoms: _91  and  _92
REMARK   42  A    between atoms: _94  and  _96
REMARK   43  A    between atoms: _96  and  _97
REMARK   44  A    between atoms: _96  and  _99
REMARK   45  A    between atoms: _99  and  _100
REMARK   46  A    between atoms: _103  and  _105
REMARK   47  A    between atoms: _105  and  _106
REMARK   48  A    between atoms: _109  and  _111
REMARK   49  A    between atoms: _111  and  _112
REMARK   50  A    between atoms: _111  and  _114
REMARK   51  A    between atoms: _114  and  _115
REMARK   52  A    between atoms: _118  and  _120
REMARK   53  A    between atoms: _120  and  _121
REMARK   54  A    between atoms: _120  and  _123
REMARK   55  A    between atoms: _123  and  _124
REMARK   56  A    between atoms: _127  and  _129
REMARK   57  A    between atoms: _129  and  _130
REMARK   58  A    between atoms: _129  and  _132
REMARK   59  A    between atoms: _132  and  _133
REMARK   60  A    between atoms: _133  and  _134
REMARK   61  A    between atoms: _134  and  _135
REMARK   62  A    between atoms: _135  and  _136
REMARK   63  A    between atoms: _140  and  _142
REMARK   64  A    between atoms: _142  and  _143
REMARK   65  A    between atoms: _142  and  _145
REMARK   66  A    between atoms: _145  and  _146
REMARK   67  A    between atoms: _149  and  _151
REMARK   68  A    between atoms: _151  and  _152
REMARK   69  A    between atoms: _151  and  _154
REMARK   70  A    between atoms: _154  and  _155
REMARK   71  A    between atoms: _155  and  _156
REMARK   72  A    between atoms: _159  and  _161
REMARK   73  A    between atoms: _161  and  _162
REMARK   74  A    between atoms: _161  and  _164
REMARK   75  A    between atoms: _164  and  _165
REMARK   76  A    between atoms: _168  and  _170
REMARK   77  A    between atoms: _170  and  _171
REMARK   78  A    between atoms: _170  and  _173
REMARK   79  A    between atoms: _176  and  _178
REMARK   80  A    between atoms: _178  and  _179
REMARK   81  A    between atoms: _178  and  _181
REMARK   82  A    between atoms: _181  and  _182
REMARK   83  A    between atoms: _185  and  _187
REMARK   84  A    between atoms: _187  and  _188
REMARK   85  A    between atoms: _187  and  _190
REMARK   86  A    between atoms: _190  and  _191
REMARK   87  A    between atoms: _194  and  _196
REMARK   88  A    between atoms: _196  and  _197
REMARK   89  A    between atoms: _199  and  _201
REMARK   90  A    between atoms: _201  and  _202
REMARK   91  A    between atoms: _201  and  _204
REMARK   92  A    between atoms: _204  and  _205
REMARK   93  A    between atoms: _208  and  _210
REMARK   94  A    between atoms: _210  and  _211
REMARK   95  A    between atoms: _213  and  _215
REMARK   96  A    between atoms: _215  and  _216
REMARK   97  A    between atoms: _215  and  _218
REMARK   98  A    between atoms: _218  and  _219
REMARK   99  A    between atoms: _219  and  _220
REMARK  100  A    between atoms: _222  and  _224
REMARK  101  A    between atoms: _224  and  _225
REMARK  102  A    between atoms: _224  and  _227
REMARK  103  A    between atoms: _227  and  _228
REMARK  104  A    between atoms: _231  and  _233
REMARK  105  A    between atoms: _233  and  _234
REMARK  106  A    between atoms: _237  and  _239
REMARK  107  A    between atoms: _239  and  _240
REMARK  108  A    between atoms: _239  and  _242
REMARK  109  A    between atoms: _242  and  _243
REMARK  110  A    between atoms: _246  and  _248
REMARK  111  A    between atoms: _248  and  _249
REMARK  112  A    between atoms: _248  and  _251
REMARK  113  A    between atoms: _251  and  _252
REMARK  114  A    between atoms: _255  and  _257
REMARK  115  A    between atoms: _257  and  _258
REMARK  116  A    between atoms: _257  and  _260
REMARK  117  A    between atoms: _260  and  _261
REMARK  118  A    between atoms: _266  and  _268
REMARK  119  A    between atoms: _268  and  _269
REMARK  120  A    between atoms: _268  and  _271
REMARK  121  A    between atoms: _271  and  _272
REMARK  122  A    between atoms: _277  and  _279
REMARK  123  A    between atoms: _279  and  _280
REMARK  124  A    between atoms: _279  and  _282
REMARK  125  A    between atoms: _282  and  _283
REMARK  126  A    between atoms: _286  and  _288
REMARK  127  A    between atoms: _288  and  _289
REMARK  128  A    between atoms: _291  and  _293
REMARK  129  A    between atoms: _293  and  _294
REMARK  130  A    between atoms: _293  and  _296
REMARK  131  A    between atoms: _296  and  _297
REMARK  132  A    between atoms: _300  and  _302
REMARK  133  A    between atoms: _302  and  _303
REMARK  134  A    between atoms: _302  and  _305
REMARK  135  A    between atoms: _305  and  _306
REMARK  136  A    between atoms: _306  and  _307
REMARK  137  A    between atoms: _307  and  _308
REMARK  138  A    between atoms: _308  and  _309
REMARK  139  A    between atoms: _313  and  _315
REMARK  140  A    between atoms: _315  and  _316
REMARK  141  A    between atoms: _318  and  _320
REMARK  142  A    between atoms: _320  and  _321
REMARK  143  A    between atoms: _320  and  _323
REMARK  144  A    between atoms: _323  and  _324
REMARK  145  A    between atoms: _330  and  _332
REMARK  146  A    between atoms: _332  and  _333
REMARK  147  A    between atoms: _335  and  _337
REMARK  148  A    between atoms: _337  and  _338
REMARK  149  A    between atoms: _337  and  _340
REMARK  150  A    between atoms: _343  and  _345
REMARK  151  A    between atoms: _345  and  _346
REMARK  152  A    between atoms: _348  and  _350
REMARK  153  A    between atoms: _350  and  _351
REMARK  154  A    between atoms: _350  and  _353
REMARK  155  A    between atoms: _353  and  _354
REMARK  156  A    between atoms: _360  and  _362
REMARK  157  A    between atoms: _362  and  _363
REMARK  158  A    between atoms: _362  and  _365
REMARK  159  A    between atoms: _365  and  _366
REMARK  160  A    between atoms: _371  and  _372
REMARK  161  A    between atoms: _374  and  _376
REMARK  162  A    between atoms: _376  and  _377
REMARK  163  A    between atoms: _376  and  _379
REMARK  164  A    between atoms: _379  and  _380
REMARK  165  A    between atoms: _382  and  _384
REMARK  166  A    between atoms: _384  and  _385
REMARK  167  A    between atoms: _388  and  _390
REMARK  168  A    between atoms: _390  and  _391
REMARK  169  A    between atoms: _390  and  _393
REMARK  170  A    between atoms: _396  and  _398
REMARK  171  A    between atoms: _398  and  _399
REMARK  172  A    between atoms: _398  and  _401
REMARK  173  A    between atoms: _404  and  _406
REMARK  174  A    between atoms: _406  and  _407
REMARK  175  A    between atoms: _406  and  _409
REMARK  176  A    between atoms: _409  and  _410
REMARK  177  A    between atoms: _413  and  _415
REMARK  178  A    between atoms: _415  and  _416
REMARK  179  A    between atoms: _415  and  _418
REMARK  180  A    between atoms: _418  and  _419
REMARK  181  A    between atoms: _422  and  _424
REMARK  182  A    between atoms: _424  and  _425
REMARK  183  A    between atoms: _424  and  _427
REMARK  184  A    between atoms: _427  and  _428
REMARK  185  A    between atoms: _428  and  _429
REMARK  186  A    between atoms: _429  and  _430
REMARK  187  A    between atoms: _430  and  _431
REMARK  188  A    between atoms: _435  and  _437
REMARK  189  A    between atoms: _437  and  _438
REMARK  190  A    between atoms: _437  and  _440
REMARK  191  A    between atoms: _440  and  _441
REMARK  192  A    between atoms: _446  and  _448
REMARK  193  A    between atoms: _448  and  _449
REMARK  194  A    between atoms: _448  and  _451
REMARK  195  A    between atoms: _451  and  _452
REMARK  196  A    between atoms: _457  and  _459
REMARK  197  A    between atoms: _459  and  _460
REMARK  198  A    between atoms: _459  and  _462
REMARK  199  A    between atoms: _462  and  _463
REMARK  200  A    between atoms: _466  and  _468
REMARK  201  A    between atoms: _468  and  _469
REMARK  202  A    between atoms: _471  and  _473
REMARK  203  A    between atoms: _473  and  _474
REMARK  204  A    between atoms: _473  and  _476
REMARK  205  A    between atoms: _476  and  _477
REMARK  206  A    between atoms: _480  and  _482
REMARK  207  A    between atoms: _482  and  _483
REMARK  208  A    between atoms: _482  and  _485
REMARK  209  A    between atoms: _485  and  _486
REMARK  210  A    between atoms: _486  and  _487
REMARK  211  A    between atoms: _487  and  _488
REMARK  212  A    between atoms: _488  and  _489
REMARK  213  A    between atoms: _493  and  _495
REMARK  214  A    between atoms: _495  and  _496
REMARK  215  A    between atoms: _495  and  _498
REMARK                            x       y       z     vdW  Elec       q    Type
REMARK                         _______ _______ _______ _____ _____    ______ ____
ROOT
ATOM      1  O   HOH     1      -2.893  -5.371   1.944  0.00  0.00    +0.000 OA
ENDROOT
TORSDOF 0
REMARK  Name = ../refined-set-2016/4b7p/4b7p_pocket.pdb
REMARK  215 active torsions:
REMARK  status: ('A' for Active; 'I' for Inactive)
REMARK    1  A    between atoms: _1  and  _3
REMARK    2  A    between atoms: _3  and  _4
REMARK    3  A    between atoms: _3  and  _6
REMARK    4  A    between atoms: _6  and  _7
REMARK    5  A    between atoms: _10  and  _12
REMARK    6  A    between atoms: _12  and  _13
REMARK    7  A    between atoms: _12  and  _15
REMARK    8  A    between atoms: _15  and  _16
REMARK    9  A    between atoms: _22  and  _24
REMARK   10  A    between atoms: _24  and  _25
REMARK   11  A    between atoms: _24  and  _27
REMARK   12  A    between atoms: _27  and  _28
REMARK   13  A    between atoms: _31  and  _33
REMARK   14  A    between atoms: _33  and  _34
REMARK   15  A    between atoms: _33  and  _36
REMARK   16  A    between atoms: _36  and  _37
REMARK   17  A    between atoms: _37  and  _38
REMARK   18  A    between atoms: _41  and  _43
REMARK   19  A    between atoms: _43  and  _44
REMARK   20  A    between atoms: _43  and  _46
REMARK   21  A    between atoms: _46  and  _47
REMARK   22  A    between atoms: _50  and  _52
REMARK   23  A    between atoms: _52  and  _53
REMARK   24  A    between atoms: _52  and  _55
REMARK   25  A    between atoms: _55  and  _56
REMARK   26  A    between atoms: _59  and  _61
REMARK   27  A    between atoms: _61  and  _62
REMARK   28  A    between atoms: _61  and  _64
REMARK   29  A    between atoms: _64  and  _65
REMARK   30  A    between atoms: _67  and  _69
REMARK   31  A    between atoms: _69  and  _70
REMARK   32  A    between atoms: _69  and  _72
REMARK   33  A    between atoms: _72  and  _73
REMARK   34  A    between atoms: _78  and  _80
REMARK   35  A    between atoms: _80  and  _81
REMARK   36  A    between atoms: _80  and  _83
REMARK   37  A    between atoms: _83  and  _84
REMARK   38  A    between atoms: _86  and  _88
REMARK   39  A    between atoms: _88  and  _89
REMARK   40  A    between atoms: _88  and  _91
REMARK   41  A    between atoms: _91  and  _92
REMARK   42  A    between atoms: _94  and  _96
REMARK   43  A    between atoms: _96  and  _97
REMARK   44  A    between atoms: _96  and  _99
REMARK   45  A    between atoms: _99  and  _100
REMARK   46  A    between atoms: _103  and  _105
REMARK   47  A    between atoms: _105  and  _106
REMARK   48  A    between atoms: _109  and  _111
REMARK   49  A    between atoms: _111  and  _112
REMARK   50  A    between atoms: _111  and  _114
REMARK   51  A    between atoms: _114  and  _115
REMARK   52  A    between atoms: _118  and  _120
REMARK   53  A    between atoms: _120  and  _121
REMARK   54  A    between atoms: _120  and  _123
REMARK   55  A    between atoms: _123  and  _124
REMARK   56  A    between atoms: _127  and  _129
REMARK   57  A    between atoms: _129  and  _130
REMARK   58  A    between atoms: _129  and  _132
REMARK   59  A    between atoms: _132  and  _133
REMARK   60  A    between atoms: _133  and  _134
REMARK   61  A    between atoms: _134  and  _135
REMARK   62  A    between atoms: _135  and  _136
REMARK   63  A    between atoms: _140  and  _142
REMARK   64  A    between atoms: _142  and  _143
REMARK   65  A    between atoms: _142  and  _145
REMARK   66  A    between atoms: _145  and  _146
REMARK   67  A    between atoms: _149  and  _151
REMARK   68  A    between atoms: _151  and  _152
REMARK   69  A    between atoms: _151  and  _154
REMARK   70  A    between atoms: _154  and  _155
REMARK   71  A    between atoms: _155  and  _156
REMARK   72  A    between atoms: _159  and  _161
REMARK   73  A    between atoms: _161  and  _162
REMARK   74  A    between atoms: _161  and  _164
REMARK   75  A    between atoms: _164  and  _165
REMARK   76  A    between atoms: _168  and  _170
REMARK   77  A    between atoms: _170  and  _171
REMARK   78  A    between atoms: _170  and  _173
REMARK   79  A    between atoms: _176  and  _178
REMARK   80  A    between atoms: _178  and  _179
REMARK   81  A    between atoms: _178  and  _181
REMARK   82  A    between atoms: _181  and  _182
REMARK   83  A    between atoms: _185  and  _187
REMARK   84  A    between atoms: _187  and  _188
REMARK   85  A    between atoms: _187  and  _190
REMARK   86  A    between atoms: _190  and  _191
REMARK   87  A    between atoms: _194  and  _196
REMARK   88  A    between atoms: _196  and  _197
REMARK   89  A    between atoms: _199  and  _201
REMARK   90  A    between atoms: _201  and  _202
REMARK   91  A    between atoms: _201  and  _204
REMARK   92  A    between atoms: _204  and  _205
REMARK   93  A    between atoms: _208  and  _210
REMARK   94  A    between atoms: _210  and  _211
REMARK   95  A    between atoms: _213  and  _215
REMARK   96  A    between atoms: _215  and  _216
REMARK   97  A    between atoms: _215  and  _218
REMARK   98  A    between atoms: _218  and  _219
REMARK   99  A    between atoms: _219  and  _220
REMARK  100  A    between atoms: _222  and  _224
REMARK  101  A    between atoms: _224  and  _225
REMARK  102  A    between atoms: _224  and  _227
REMARK  103  A    between atoms: _227  and  _228
REMARK  104  A    between atoms: _231  and  _233
REMARK  105  A    between atoms: _233  and  _234
REMARK  106  A    between atoms: _237  and  _239
REMARK  107  A    between atoms: _239  and  _240
REMARK  108  A    between atoms: _239  and  _242
REMARK  109  A    between atoms: _242  and  _243
REMARK  110  A    between atoms: _246  and  _248
REMARK  111  A    between atoms: _248  and  _249
REMARK  112  A    between atoms: _248  and  _251
REMARK  113  A    between atoms: _251  and  _252
REMARK  114  A    between atoms: _255  and  _257
REMARK  115  A    between atoms: _257  and  _258
REMARK  116  A    between atoms: _257  and  _260
REMARK  117  A    between atoms: _260  and  _261
REMARK  118  A    between atoms: _266  and  _268
REMARK  119  A    between atoms: _268  and  _269
REMARK  120  A    between atoms: _268  and  _271
REMARK  121  A    between atoms: _271  and  _272
REMARK  122  A    between atoms: _277  and  _279
REMARK  123  A    between atoms: _279  and  _280
REMARK  124  A    between atoms: _279  and  _282
REMARK  125  A    between atoms: _282  and  _283
REMARK  126  A    between atoms: _286  and  _288
REMARK  127  A    between atoms: _288  and  _289
REMARK  128  A    between atoms: _291  and  _293
REMARK  129  A    between atoms: _293  and  _294
REMARK  130  A    between atoms: _293  and  _296
REMARK  131  A    between atoms: _296  and  _297
REMARK  132  A    between atoms: _300  and  _302
REMARK  133  A    between atoms: _302  and  _303
REMARK  134  A    between atoms: _302  and  _305
REMARK  135  A    between atoms: _305  and  _306
REMARK  136  A    between atoms: _306  and  _307
REMARK  137  A    between atoms: _307  and  _308
REMARK  138  A    between atoms: _308  and  _309
REMARK  139  A    between atoms: _313  and  _315
REMARK  140  A    between atoms: _315  and  _316
REMARK  141  A    between atoms: _318  and  _320
REMARK  142  A    between atoms: _320  and  _321
REMARK  143  A    between atoms: _320  and  _323
REMARK  144  A    between atoms: _323  and  _324
REMARK  145  A    between atoms: _330  and  _332
REMARK  146  A    between atoms: _332  and  _333
REMARK  147  A    between atoms: _335  and  _337
REMARK  148  A    between atoms: _337  and  _338
REMARK  149  A    between atoms: _337  and  _340
REMARK  150  A    between atoms: _343  and  _345
REMARK  151  A    between atoms: _345  and  _346
REMARK  152  A    between atoms: _348  and  _350
REMARK  153  A    between atoms: _350  and  _351
REMARK  154  A    between atoms: _350  and  _353
REMARK  155  A    between atoms: _353  and  _354
REMARK  156  A    between atoms: _360  and  _362
REMARK  157  A    between atoms: _362  and  _363
REMARK  158  A    between atoms: _362  and  _365
REMARK  159  A    between atoms: _365  and  _366
REMARK  160  A    between atoms: _371  and  _372
REMARK  161  A    between atoms: _374  and  _376
REMARK  162  A    between atoms: _376  and  _377
REMARK  163  A    between atoms: _376  and  _379
REMARK  164  A    between atoms: _379  and  _380
REMARK  165  A    between atoms: _382  and  _384
REMARK  166  A    between atoms: _384  and  _385
REMARK  167  A    between atoms: _388  and  _390
REMARK  168  A    between atoms: _390  and  _391
REMARK  169  A    between atoms: _390  and  _393
REMARK  170  A    between atoms: _396  and  _398
REMARK  171  A    between atoms: _398  and  _399
REMARK  172  A    between atoms: _398  and  _401
REMARK  173  A    between atoms: _404  and  _406
REMARK  174  A    between atoms: _406  and  _407
REMARK  175  A    between atoms: _406  and  _409
REMARK  176  A    between atoms: _409  and  _410
REMARK  177  A    between atoms: _413  and  _415
REMARK  178  A    between atoms: _415  and  _416
REMARK  179  A    between atoms: _415  and  _418
REMARK  180  A    between atoms: _418  and  _419
REMARK  181  A    between atoms: _422  and  _424
REMARK  182  A    between atoms: _424  and  _425
REMARK  183  A    between atoms: _424  and  _427
REMARK  184  A    between atoms: _427  and  _428
REMARK  185  A    between atoms: _428  and  _429
REMARK  186  A    between atoms: _429  and  _430
REMARK  187  A    between atoms: _430  and  _431
REMARK  188  A    between atoms: _435  and  _437
REMARK  189  A    between atoms: _437  and  _438
REMARK  190  A    between atoms: _437  and  _440
REMARK  191  A    between atoms: _440  and  _441
REMARK  192  A    between atoms: _446  and  _448
REMARK  193  A    between atoms: _448  and  _449
REMARK  194  A    between atoms: _448  and  _451
REMARK  195  A    between atoms: _451  and  _452
REMARK  196  A    between atoms: _457  and  _459
REMARK  197  A    between atoms: _459  and  _460
REMARK  198  A    between atoms: _459  and  _462
REMARK  199  A    between atoms: _462  and  _463
REMARK  200  A    between atoms: _466  and  _468
REMARK  201  A    between atoms: _468  and  _469
REMARK  202  A    between atoms: _471  and  _473
REMARK  203  A    between atoms: _473  and  _474
REMARK  204  A    between atoms: _473  and  _476
REMARK  205  A    between atoms: _476  and  _477
REMARK  206  A    between atoms: _480  and  _482
REMARK  207  A    between atoms: _482  and  _483
REMARK  208  A    between atoms: _482  and  _485
REMARK  209  A    between atoms: _485  and  _486
REMARK  210  A    between atoms: _486  and  _487
REMARK  211  A    between atoms: _487  and  _488
REMARK  212  A    between atoms: _488  and  _489
REMARK  213  A    between atoms: _493  and  _495
REMARK  214  A    between atoms: _495  and  _496
REMARK  215  A    between atoms: _495  and  _498
REMARK                            x       y       z     vdW  Elec       q    Type
REMARK                         _______ _______ _______ _____ _____    ______ ____
ROOT
ATOM      1  O   HOH     1       6.315  -1.398   1.659  0.00  0.00    +0.000 OA
ENDROOT
TORSDOF 0
REMARK  Name = ../refined-set-2016/4b7p/4b7p_pocket.pdb
REMARK  215 active torsions:
REMARK  status: ('A' for Active; 'I' for Inactive)
REMARK    1  A    between atoms: _1  and  _3
REMARK    2  A    between atoms: _3  and  _4
REMARK    3  A    between atoms: _3  and  _6
REMARK    4  A    between atoms: _6  and  _7
REMARK    5  A    between atoms: _10  and  _12
REMARK    6  A    between atoms: _12  and  _13
REMARK    7  A    between atoms: _12  and  _15
REMARK    8  A    between atoms: _15  and  _16
REMARK    9  A    between atoms: _22  and  _24
REMARK   10  A    between atoms: _24  and  _25
REMARK   11  A    between atoms: _24  and  _27
REMARK   12  A    between atoms: _27  and  _28
REMARK   13  A    between atoms: _31  and  _33
REMARK   14  A    between atoms: _33  and  _34
REMARK   15  A    between atoms: _33  and  _36
REMARK   16  A    between atoms: _36  and  _37
REMARK   17  A    between atoms: _37  and  _38
REMARK   18  A    between atoms: _41  and  _43
REMARK   19  A    between atoms: _43  and  _44
REMARK   20  A    between atoms: _43  and  _46
REMARK   21  A    between atoms: _46  and  _47
REMARK   22  A    between atoms: _50  and  _52
REMARK   23  A    between atoms: _52  and  _53
REMARK   24  A    between atoms: _52  and  _55
REMARK   25  A    between atoms: _55  and  _56
REMARK   26  A    between atoms: _59  and  _61
REMARK   27  A    between atoms: _61  and  _62
REMARK   28  A    between atoms: _61  and  _64
REMARK   29  A    between atoms: _64  and  _65
REMARK   30  A    between atoms: _67  and  _69
REMARK   31  A    between atoms: _69  and  _70
REMARK   32  A    between atoms: _69  and  _72
REMARK   33  A    between atoms: _72  and  _73
REMARK   34  A    between atoms: _78  and  _80
REMARK   35  A    between atoms: _80  and  _81
REMARK   36  A    between atoms: _80  and  _83
REMARK   37  A    between atoms: _83  and  _84
REMARK   38  A    between atoms: _86  and  _88
REMARK   39  A    between atoms: _88  and  _89
REMARK   40  A    between atoms: _88  and  _91
REMARK   41  A    between atoms: _91  and  _92
REMARK   42  A    between atoms: _94  and  _96
REMARK   43  A    between atoms: _96  and  _97
REMARK   44  A    between atoms: _96  and  _99
REMARK   45  A    between atoms: _99  and  _100
REMARK   46  A    between atoms: _103  and  _105
REMARK   47  A    between atoms: _105  and  _106
REMARK   48  A    between atoms: _109  and  _111
REMARK   49  A    between atoms: _111  and  _112
REMARK   50  A    between atoms: _111  and  _114
REMARK   51  A    between atoms: _114  and  _115
REMARK   52  A    between atoms: _118  and  _120
REMARK   53  A    between atoms: _120  and  _121
REMARK   54  A    between atoms: _120  and  _123
REMARK   55  A    between atoms: _123  and  _124
REMARK   56  A    between atoms: _127  and  _129
REMARK   57  A    between atoms: _129  and  _130
REMARK   58  A    between atoms: _129  and  _132
REMARK   59  A    between atoms: _132  and  _133
REMARK   60  A    between atoms: _133  and  _134
REMARK   61  A    between atoms: _134  and  _135
REMARK   62  A    between atoms: _135  and  _136
REMARK   63  A    between atoms: _140  and  _142
REMARK   64  A    between atoms: _142  and  _143
REMARK   65  A    between atoms: _142  and  _145
REMARK   66  A    between atoms: _145  and  _146
REMARK   67  A    between atoms: _149  and  _151
REMARK   68  A    between atoms: _151  and  _152
REMARK   69  A    between atoms: _151  and  _154
REMARK   70  A    between atoms: _154  and  _155
REMARK   71  A    between atoms: _155  and  _156
REMARK   72  A    between atoms: _159  and  _161
REMARK   73  A    between atoms: _161  and  _162
REMARK   74  A    between atoms: _161  and  _164
REMARK   75  A    between atoms: _164  and  _165
REMARK   76  A    between atoms: _168  and  _170
REMARK   77  A    between atoms: _170  and  _171
REMARK   78  A    between atoms: _170  and  _173
REMARK   79  A    between atoms: _176  and  _178
REMARK   80  A    between atoms: _178  and  _179
REMARK   81  A    between atoms: _178  and  _181
REMARK   82  A    between atoms: _181  and  _182
REMARK   83  A    between atoms: _185  and  _187
REMARK   84  A    between atoms: _187  and  _188
REMARK   85  A    between atoms: _187  and  _190
REMARK   86  A    between atoms: _190  and  _191
REMARK   87  A    between atoms: _194  and  _196
REMARK   88  A    between atoms: _196  and  _197
REMARK   89  A    between atoms: _199  and  _201
REMARK   90  A    between atoms: _201  and  _202
REMARK   91  A    between atoms: _201  and  _204
REMARK   92  A    between atoms: _204  and  _205
REMARK   93  A    between atoms: _208  and  _210
REMARK   94  A    between atoms: _210  and  _211
REMARK   95  A    between atoms: _213  and  _215
REMARK   96  A    between atoms: _215  and  _216
REMARK   97  A    between atoms: _215  and  _218
REMARK   98  A    between atoms: _218  and  _219
REMARK   99  A    between atoms: _219  and  _220
REMARK  100  A    between atoms: _222  and  _224
REMARK  101  A    between atoms: _224  and  _225
REMARK  102  A    between atoms: _224  and  _227
REMARK  103  A    between atoms: _227  and  _228
REMARK  104  A    between atoms: _231  and  _233
REMARK  105  A    between atoms: _233  and  _234
REMARK  106  A    between atoms: _237  and  _239
REMARK  107  A    between atoms: _239  and  _240
REMARK  108  A    between atoms: _239  and  _242
REMARK  109  A    between atoms: _242  and  _243
REMARK  110  A    between atoms: _246  and  _248
REMARK  111  A    between atoms: _248  and  _249
REMARK  112  A    between atoms: _248  and  _251
REMARK  113  A    between atoms: _251  and  _252
REMARK  114  A    between atoms: _255  and  _257
REMARK  115  A    between atoms: _257  and  _258
REMARK  116  A    between atoms: _257  and  _260
REMARK  117  A    between atoms: _260  and  _261
REMARK  118  A    between atoms: _266  and  _268
REMARK  119  A    between atoms: _268  and  _269
REMARK  120  A    between atoms: _268  and  _271
REMARK  121  A    between atoms: _271  and  _272
REMARK  122  A    between atoms: _277  and  _279
REMARK  123  A    between atoms: _279  and  _280
REMARK  124  A    between atoms: _279  and  _282
REMARK  125  A    between atoms: _282  and  _283
REMARK  126  A    between atoms: _286  and  _288
REMARK  127  A    between atoms: _288  and  _289
REMARK  128  A    between atoms: _291  and  _293
REMARK  129  A    between atoms: _293  and  _294
REMARK  130  A    between atoms: _293  and  _296
REMARK  131  A    between atoms: _296  and  _297
REMARK  132  A    between atoms: _300  and  _302
REMARK  133  A    between atoms: _302  and  _303
REMARK  134  A    between atoms: _302  and  _305
REMARK  135  A    between atoms: _305  and  _306
REMARK  136  A    between atoms: _306  and  _307
REMARK  137  A    between atoms: _307  and  _308
REMARK  138  A    between atoms: _308  and  _309
REMARK  139  A    between atoms: _313  and  _315
REMARK  140  A    between atoms: _315  and  _316
REMARK  141  A    between atoms: _318  and  _320
REMARK  142  A    between atoms: _320  and  _321
REMARK  143  A    between atoms: _320  and  _323
REMARK  144  A    between atoms: _323  and  _324
REMARK  145  A    between atoms: _330  and  _332
REMARK  146  A    between atoms: _332  and  _333
REMARK  147  A    between atoms: _335  and  _337
REMARK  148  A    between atoms: _337  and  _338
REMARK  149  A    between atoms: _337  and  _340
REMARK  150  A    between atoms: _343  and  _345
REMARK  151  A    between atoms: _345  and  _346
REMARK  152  A    between atoms: _348  and  _350
REMARK  153  A    between atoms: _350  and  _351
REMARK  154  A    between atoms: _350  and  _353
REMARK  155  A    between atoms: _353  and  _354
REMARK  156  A    between atoms: _360  and  _362
REMARK  157  A    between atoms: _362  and  _363
REMARK  158  A    between atoms: _362  and  _365
REMARK  159  A    between atoms: _365  and  _366
REMARK  160  A    between atoms: _371  and  _372
REMARK  161  A    between atoms: _374  and  _376
REMARK  162  A    between atoms: _376  and  _377
REMARK  163  A    between atoms: _376  and  _379
REMARK  164  A    between atoms: _379  and  _380
REMARK  165  A    between atoms: _382  and  _384
REMARK  166  A    between atoms: _384  and  _385
REMARK  167  A    between atoms: _388  and  _390
REMARK  168  A    between atoms: _390  and  _391
REMARK  169  A    between atoms: _390  and  _393
REMARK  170  A    between atoms: _396  and  _398
REMARK  171  A    between atoms: _398  and  _399
REMARK  172  A    between atoms: _398  and  _401
REMARK  173  A    between atoms: _404  and  _406
REMARK  174  A    between atoms: _406  and  _407
REMARK  175  A    between atoms: _406  and  _409
REMARK  176  A    between atoms: _409  and  _410
REMARK  177  A    between atoms: _413  and  _415
REMARK  178  A    between atoms: _415  and  _416
REMARK  179  A    between atoms: _415  and  _418
REMARK  180  A    between atoms: _418  and  _419
REMARK  181  A    between atoms: _422  and  _424
REMARK  182  A    between atoms: _424  and  _425
REMARK  183  A    between atoms: _424  and  _427
REMARK  184  A    between atoms: _427  and  _428
REMARK  185  A    between atoms: _428  and  _429
REMARK  186  A    between atoms: _429  and  _430
REMARK  187  A    between atoms: _430  and  _431
REMARK  188  A    between atoms: _435  and  _437
REMARK  189  A    between atoms: _437  and  _438
REMARK  190  A    between atoms: _437  and  _440
REMARK  191  A    between atoms: _440  and  _441
REMARK  192  A    between atoms: _446  and  _448
REMARK  193  A    between atoms: _448  and  _449
REMARK  194  A    between atoms: _448  and  _451
REMARK  195  A    between atoms: _451  and  _452
REMARK  196  A    between atoms: _457  and  _459
REMARK  197  A    between atoms: _459  and  _460
REMARK  198  A    between atoms: _459  and  _462
REMARK  199  A    between atoms: _462  and  _463
REMARK  200  A    between atoms: _466  and  _468
REMARK  201  A    between atoms: _468  and  _469
REMARK  202  A    between atoms: _471  and  _473
REMARK  203  A    between atoms: _473  and  _474
REMARK  204  A    between atoms: _473  and  _476
REMARK  205  A    between atoms: _476  and  _477
REMARK  206  A    between atoms: _480  and  _482
REMARK  207  A    between atoms: _482  and  _483
REMARK  208  A    between atoms: _482  and  _485
REMARK  209  A    between atoms: _485  and  _486
REMARK  210  A    between atoms: _486  and  _487
REMARK  211  A    between atoms: _487  and  _488
REMARK  212  A    between atoms: _488  and  _489
REMARK  213  A    between atoms: _493  and  _495
REMARK  214  A    between atoms: _495  and  _496
REMARK  215  A    between atoms: _495  and  _498
REMARK                            x       y       z     vdW  Elec       q    Type
REMARK                         _______ _______ _______ _____ _____    ______ ____
ROOT
ATOM      1  O   HOH     1       5.558  -2.933   5.078  0.00  0.00    +0.000 OA
ENDROOT
TORSDOF 0
REMARK  Name = ../refined-set-2016/4b7p/4b7p_pocket.pdb
REMARK  215 active torsions:
REMARK  status: ('A' for Active; 'I' for Inactive)
REMARK    1  A    between atoms: _1  and  _3
REMARK    2  A    between atoms: _3  and  _4
REMARK    3  A    between atoms: _3  and  _6
REMARK    4  A    between atoms: _6  and  _7
REMARK    5  A    between atoms: _10  and  _12
REMARK    6  A    between atoms: _12  and  _13
REMARK    7  A    between atoms: _12  and  _15
REMARK    8  A    between atoms: _15  and  _16
REMARK    9  A    between atoms: _22  and  _24
REMARK   10  A    between atoms: _24  and  _25
REMARK   11  A    between atoms: _24  and  _27
REMARK   12  A    between atoms: _27  and  _28
REMARK   13  A    between atoms: _31  and  _33
REMARK   14  A    between atoms: _33  and  _34
REMARK   15  A    between atoms: _33  and  _36
REMARK   16  A    between atoms: _36  and  _37
REMARK   17  A    between atoms: _37  and  _38
REMARK   18  A    between atoms: _41  and  _43
REMARK   19  A    between atoms: _43  and  _44
REMARK   20  A    between atoms: _43  and  _46
REMARK   21  A    between atoms: _46  and  _47
REMARK   22  A    between atoms: _50  and  _52
REMARK   23  A    between atoms: _52  and  _53
REMARK   24  A    between atoms: _52  and  _55
REMARK   25  A    between atoms: _55  and  _56
REMARK   26  A    between atoms: _59  and  _61
REMARK   27  A    between atoms: _61  and  _62
REMARK   28  A    between atoms: _61  and  _64
REMARK   29  A    between atoms: _64  and  _65
REMARK   30  A    between atoms: _67  and  _69
REMARK   31  A    between atoms: _69  and  _70
REMARK   32  A    between atoms: _69  and  _72
REMARK   33  A    between atoms: _72  and  _73
REMARK   34  A    between atoms: _78  and  _80
REMARK   35  A    between atoms: _80  and  _81
REMARK   36  A    between atoms: _80  and  _83
REMARK   37  A    between atoms: _83  and  _84
REMARK   38  A    between atoms: _86  and  _88
REMARK   39  A    between atoms: _88  and  _89
REMARK   40  A    between atoms: _88  and  _91
REMARK   41  A    between atoms: _91  and  _92
REMARK   42  A    between atoms: _94  and  _96
REMARK   43  A    between atoms: _96  and  _97
REMARK   44  A    between atoms: _96  and  _99
REMARK   45  A    between atoms: _99  and  _100
REMARK   46  A    between atoms: _103  and  _105
REMARK   47  A    between atoms: _105  and  _106
REMARK   48  A    between atoms: _109  and  _111
REMARK   49  A    between atoms: _111  and  _112
REMARK   50  A    between atoms: _111  and  _114
REMARK   51  A    between atoms: _114  and  _115
REMARK   52  A    between atoms: _118  and  _120
REMARK   53  A    between atoms: _120  and  _121
REMARK   54  A    between atoms: _120  and  _123
REMARK   55  A    between atoms: _123  and  _124
REMARK   56  A    between atoms: _127  and  _129
REMARK   57  A    between atoms: _129  and  _130
REMARK   58  A    between atoms: _129  and  _132
REMARK   59  A    between atoms: _132  and  _133
REMARK   60  A    between atoms: _133  and  _134
REMARK   61  A    between atoms: _134  and  _135
REMARK   62  A    between atoms: _135  and  _136
REMARK   63  A    between atoms: _140  and  _142
REMARK   64  A    between atoms: _142  and  _143
REMARK   65  A    between atoms: _142  and  _145
REMARK   66  A    between atoms: _145  and  _146
REMARK   67  A    between atoms: _149  and  _151
REMARK   68  A    between atoms: _151  and  _152
REMARK   69  A    between atoms: _151  and  _154
REMARK   70  A    between atoms: _154  and  _155
REMARK   71  A    between atoms: _155  and  _156
REMARK   72  A    between atoms: _159  and  _161
REMARK   73  A    between atoms: _161  and  _162
REMARK   74  A    between atoms: _161  and  _164
REMARK   75  A    between atoms: _164  and  _165
REMARK   76  A    between atoms: _168  and  _170
REMARK   77  A    between atoms: _170  and  _171
REMARK   78  A    between atoms: _170  and  _173
REMARK   79  A    between atoms: _176  and  _178
REMARK   80  A    between atoms: _178  and  _179
REMARK   81  A    between atoms: _178  and  _181
REMARK   82  A    between atoms: _181  and  _182
REMARK   83  A    between atoms: _185  and  _187
REMARK   84  A    between atoms: _187  and  _188
REMARK   85  A    between atoms: _187  and  _190
REMARK   86  A    between atoms: _190  and  _191
REMARK   87  A    between atoms: _194  and  _196
REMARK   88  A    between atoms: _196  and  _197
REMARK   89  A    between atoms: _199  and  _201
REMARK   90  A    between atoms: _201  and  _202
REMARK   91  A    between atoms: _201  and  _204
REMARK   92  A    between atoms: _204  and  _205
REMARK   93  A    between atoms: _208  and  _210
REMARK   94  A    between atoms: _210  and  _211
REMARK   95  A    between atoms: _213  and  _215
REMARK   96  A    between atoms: _215  and  _216
REMARK   97  A    between atoms: _215  and  _218
REMARK   98  A    between atoms: _218  and  _219
REMARK   99  A    between atoms: _219  and  _220
REMARK  100  A    between atoms: _222  and  _224
REMARK  101  A    between atoms: _224  and  _225
REMARK  102  A    between atoms: _224  and  _227
REMARK  103  A    between atoms: _227  and  _228
REMARK  104  A    between atoms: _231  and  _233
REMARK  105  A    between atoms: _233  and  _234
REMARK  106  A    between atoms: _237  and  _239
REMARK  107  A    between atoms: _239  and  _240
REMARK  108  A    between atoms: _239  and  _242
REMARK  109  A    between atoms: _242  and  _243
REMARK  110  A    between atoms: _246  and  _248
REMARK  111  A    between atoms: _248  and  _249
REMARK  112  A    between atoms: _248  and  _251
REMARK  113  A    between atoms: _251  and  _252
REMARK  114  A    between atoms: _255  and  _257
REMARK  115  A    between atoms: _257  and  _258
REMARK  116  A    between atoms: _257  and  _260
REMARK  117  A    between atoms: _260  and  _261
REMARK  118  A    between atoms: _266  and  _268
REMARK  119  A    between atoms: _268  and  _269
REMARK  120  A    between atoms: _268  and  _271
REMARK  121  A    between atoms: _271  and  _272
REMARK  122  A    between atoms: _277  and  _279
REMARK  123  A    between atoms: _279  and  _280
REMARK  124  A    between atoms: _279  and  _282
REMARK  125  A    between atoms: _282  and  _283
REMARK  126  A    between atoms: _286  and  _288
REMARK  127  A    between atoms: _288  and  _289
REMARK  128  A    between atoms: _291  and  _293
REMARK  129  A    between atoms: _293  and  _294
REMARK  130  A    between atoms: _293  and  _296
REMARK  131  A    between atoms: _296  and  _297
REMARK  132  A    between atoms: _300  and  _302
REMARK  133  A    between atoms: _302  and  _303
REMARK  134  A    between atoms: _302  and  _305
REMARK  135  A    between atoms: _305  and  _306
REMARK  136  A    between atoms: _306  and  _307
REMARK  137  A    between atoms: _307  and  _308
REMARK  138  A    between atoms: _308  and  _309
REMARK  139  A    between atoms: _313  and  _315
REMARK  140  A    between atoms: _315  and  _316
REMARK  141  A    between atoms: _318  and  _320
REMARK  142  A    between atoms: _320  and  _321
REMARK  143  A    between atoms: _320  and  _323
REMARK  144  A    between atoms: _323  and  _324
REMARK  145  A    between atoms: _330  and  _332
REMARK  146  A    between atoms: _332  and  _333
REMARK  147  A    between atoms: _335  and  _337
REMARK  148  A    between atoms: _337  and  _338
REMARK  149  A    between atoms: _337  and  _340
REMARK  150  A    between atoms: _343  and  _345
REMARK  151  A    between atoms: _345  and  _346
REMARK  152  A    between atoms: _348  and  _350
REMARK  153  A    between atoms: _350  and  _351
REMARK  154  A    between atoms: _350  and  _353
REMARK  155  A    between atoms: _353  and  _354
REMARK  156  A    between atoms: _360  and  _362
REMARK  157  A    between atoms: _362  and  _363
REMARK  158  A    between atoms: _362  and  _365
REMARK  159  A    between atoms: _365  and  _366
REMARK  160  A    between atoms: _371  and  _372
REMARK  161  A    between atoms: _374  and  _376
REMARK  162  A    between atoms: _376  and  _377
REMARK  163  A    between atoms: _376  and  _379
REMARK  164  A    between atoms: _379  and  _380
REMARK  165  A    between atoms: _382  and  _384
REMARK  166  A    between atoms: _384  and  _385
REMARK  167  A    between atoms: _388  and  _390
REMARK  168  A    between atoms: _390  and  _391
REMARK  169  A    between atoms: _390  and  _393
REMARK  170  A    between atoms: _396  and  _398
REMARK  171  A    between atoms: _398  and  _399
REMARK  172  A    between atoms: _398  and  _401
REMARK  173  A    between atoms: _404  and  _406
REMARK  174  A    between atoms: _406  and  _407
REMARK  175  A    between atoms: _406  and  _409
REMARK  176  A    between atoms: _409  and  _410
REMARK  177  A    between atoms: _413  and  _415
REMARK  178  A    between atoms: _415  and  _416
REMARK  179  A    between atoms: _415  and  _418
REMARK  180  A    between atoms: _418  and  _419
REMARK  181  A    between atoms: _422  and  _424
REMARK  182  A    between atoms: _424  and  _425
REMARK  183  A    between atoms: _424  and  _427
REMARK  184  A    between atoms: _427  and  _428
REMARK  185  A    between atoms: _428  and  _429
REMARK  186  A    between atoms: _429  and  _430
REMARK  187  A    between atoms: _430  and  _431
REMARK  188  A    between atoms: _435  and  _437
REMARK  189  A    between atoms: _437  and  _438
REMARK  190  A    between atoms: _437  and  _440
REMARK  191  A    between atoms: _440  and  _441
REMARK  192  A    between atoms: _446  and  _448
REMARK  193  A    between atoms: _448  and  _449
REMARK  194  A    between atoms: _448  and  _451
REMARK  195  A    between atoms: _451  and  _452
REMARK  196  A    between atoms: _457  and  _459
REMARK  197  A    between atoms: _459  and  _460
REMARK  198  A    between atoms: _459  and  _462
REMARK  199  A    between atoms: _462  and  _463
REMARK  200  A    between atoms: _466  and  _468
REMARK  201  A    between atoms: _468  and  _469
REMARK  202  A    between atoms: _471  and  _473
REMARK  203  A    between atoms: _473  and  _474
REMARK  204  A    between atoms: _473  and  _476
REMARK  205  A    between atoms: _476  and  _477
REMARK  206  A    between atoms: _480  and  _482
REMARK  207  A    between atoms: _482  and  _483
REMARK  208  A    between atoms: _482  and  _485
REMARK  209  A    between atoms: _485  and  _486
REMARK  210  A    between atoms: _486  and  _487
REMARK  211  A    between atoms: _487  and  _488
REMARK  212  A    between atoms: _488  and  _489
REMARK  213  A    between atoms: _493  and  _495
REMARK  214  A    between atoms: _495  and  _496
REMARK  215  A    between atoms: _495  and  _498
REMARK                            x       y       z     vdW  Elec       q    Type
REMARK                         _______ _______ _______ _____ _____    ______ ____
ROOT
ATOM      1  O   HOH     1      11.559  -1.975   8.457  0.00  0.00    +0.000 OA
ENDROOT
TORSDOF 0
REMARK  Name = ../refined-set-2016/4b7p/4b7p_pocket.pdb
REMARK  215 active torsions:
REMARK  status: ('A' for Active; 'I' for Inactive)
REMARK    1  A    between atoms: _1  and  _3
REMARK    2  A    between atoms: _3  and  _4
REMARK    3  A    between atoms: _3  and  _6
REMARK    4  A    between atoms: _6  and  _7
REMARK    5  A    between atoms: _10  and  _12
REMARK    6  A    between atoms: _12  and  _13
REMARK    7  A    between atoms: _12  and  _15
REMARK    8  A    between atoms: _15  and  _16
REMARK    9  A    between atoms: _22  and  _24
REMARK   10  A    between atoms: _24  and  _25
REMARK   11  A    between atoms: _24  and  _27
REMARK   12  A    between atoms: _27  and  _28
REMARK   13  A    between atoms: _31  and  _33
REMARK   14  A    between atoms: _33  and  _34
REMARK   15  A    between atoms: _33  and  _36
REMARK   16  A    between atoms: _36  and  _37
REMARK   17  A    between atoms: _37  and  _38
REMARK   18  A    between atoms: _41  and  _43
REMARK   19  A    between atoms: _43  and  _44
REMARK   20  A    between atoms: _43  and  _46
REMARK   21  A    between atoms: _46  and  _47
REMARK   22  A    between atoms: _50  and  _52
REMARK   23  A    between atoms: _52  and  _53
REMARK   24  A    between atoms: _52  and  _55
REMARK   25  A    between atoms: _55  and  _56
REMARK   26  A    between atoms: _59  and  _61
REMARK   27  A    between atoms: _61  and  _62
REMARK   28  A    between atoms: _61  and  _64
REMARK   29  A    between atoms: _64  and  _65
REMARK   30  A    between atoms: _67  and  _69
REMARK   31  A    between atoms: _69  and  _70
REMARK   32  A    between atoms: _69  and  _72
REMARK   33  A    between atoms: _72  and  _73
REMARK   34  A    between atoms: _78  and  _80
REMARK   35  A    between atoms: _80  and  _81
REMARK   36  A    between atoms: _80  and  _83
REMARK   37  A    between atoms: _83  and  _84
REMARK   38  A    between atoms: _86  and  _88
REMARK   39  A    between atoms: _88  and  _89
REMARK   40  A    between atoms: _88  and  _91
REMARK   41  A    between atoms: _91  and  _92
REMARK   42  A    between atoms: _94  and  _96
REMARK   43  A    between atoms: _96  and  _97
REMARK   44  A    between atoms: _96  and  _99
REMARK   45  A    between atoms: _99  and  _100
REMARK   46  A    between atoms: _103  and  _105
REMARK   47  A    between atoms: _105  and  _106
REMARK   48  A    between atoms: _109  and  _111
REMARK   49  A    between atoms: _111  and  _112
REMARK   50  A    between atoms: _111  and  _114
REMARK   51  A    between atoms: _114  and  _115
REMARK   52  A    between atoms: _118  and  _120
REMARK   53  A    between atoms: _120  and  _121
REMARK   54  A    between atoms: _120  and  _123
REMARK   55  A    between atoms: _123  and  _124
REMARK   56  A    between atoms: _127  and  _129
REMARK   57  A    between atoms: _129  and  _130
REMARK   58  A    between atoms: _129  and  _132
REMARK   59  A    between atoms: _132  and  _133
REMARK   60  A    between atoms: _133  and  _134
REMARK   61  A    between atoms: _134  and  _135
REMARK   62  A    between atoms: _135  and  _136
REMARK   63  A    between atoms: _140  and  _142
REMARK   64  A    between atoms: _142  and  _143
REMARK   65  A    between atoms: _142  and  _145
REMARK   66  A    between atoms: _145  and  _146
REMARK   67  A    between atoms: _149  and  _151
REMARK   68  A    between atoms: _151  and  _152
REMARK   69  A    between atoms: _151  and  _154
REMARK   70  A    between atoms: _154  and  _155
REMARK   71  A    between atoms: _155  and  _156
REMARK   72  A    between atoms: _159  and  _161
REMARK   73  A    between atoms: _161  and  _162
REMARK   74  A    between atoms: _161  and  _164
REMARK   75  A    between atoms: _164  and  _165
REMARK   76  A    between atoms: _168  and  _170
REMARK   77  A    between atoms: _170  and  _171
REMARK   78  A    between atoms: _170  and  _173
REMARK   79  A    between atoms: _176  and  _178
REMARK   80  A    between atoms: _178  and  _179
REMARK   81  A    between atoms: _178  and  _181
REMARK   82  A    between atoms: _181  and  _182
REMARK   83  A    between atoms: _185  and  _187
REMARK   84  A    between atoms: _187  and  _188
REMARK   85  A    between atoms: _187  and  _190
REMARK   86  A    between atoms: _190  and  _191
REMARK   87  A    between atoms: _194  and  _196
REMARK   88  A    between atoms: _196  and  _197
REMARK   89  A    between atoms: _199  and  _201
REMARK   90  A    between atoms: _201  and  _202
REMARK   91  A    between atoms: _201  and  _204
REMARK   92  A    between atoms: _204  and  _205
REMARK   93  A    between atoms: _208  and  _210
REMARK   94  A    between atoms: _210  and  _211
REMARK   95  A    between atoms: _213  and  _215
REMARK   96  A    between atoms: _215  and  _216
REMARK   97  A    between atoms: _215  and  _218
REMARK   98  A    between atoms: _218  and  _219
REMARK   99  A    between atoms: _219  and  _220
REMARK  100  A    between atoms: _222  and  _224
REMARK  101  A    between atoms: _224  and  _225
REMARK  102  A    between atoms: _224  and  _227
REMARK  103  A    between atoms: _227  and  _228
REMARK  104  A    between atoms: _231  and  _233
REMARK  105  A    between atoms: _233  and  _234
REMARK  106  A    between atoms: _237  and  _239
REMARK  107  A    between atoms: _239  and  _240
REMARK  108  A    between atoms: _239  and  _242
REMARK  109  A    between atoms: _242  and  _243
REMARK  110  A    between atoms: _246  and  _248
REMARK  111  A    between atoms: _248  and  _249
REMARK  112  A    between atoms: _248  and  _251
REMARK  113  A    between atoms: _251  and  _252
REMARK  114  A    between atoms: _255  and  _257
REMARK  115  A    between atoms: _257  and  _258
REMARK  116  A    between atoms: _257  and  _260
REMARK  117  A    between atoms: _260  and  _261
REMARK  118  A    between atoms: _266  and  _268
REMARK  119  A    between atoms: _268  and  _269
REMARK  120  A    between atoms: _268  and  _271
REMARK  121  A    between atoms: _271  and  _272
REMARK  122  A    between atoms: _277  and  _279
REMARK  123  A    between atoms: _279  and  _280
REMARK  124  A    between atoms: _279  and  _282
REMARK  125  A    between atoms: _282  and  _283
REMARK  126  A    between atoms: _286  and  _288
REMARK  127  A    between atoms: _288  and  _289
REMARK  128  A    between atoms: _291  and  _293
REMARK  129  A    between atoms: _293  and  _294
REMARK  130  A    between atoms: _293  and  _296
REMARK  131  A    between atoms: _296  and  _297
REMARK  132  A    between atoms: _300  and  _302
REMARK  133  A    between atoms: _302  and  _303
REMARK  134  A    between atoms: _302  and  _305
REMARK  135  A    between atoms: _305  and  _306
REMARK  136  A    between atoms: _306  and  _307
REMARK  137  A    between atoms: _307  and  _308
REMARK  138  A    between atoms: _308  and  _309
REMARK  139  A    between atoms: _313  and  _315
REMARK  140  A    between atoms: _315  and  _316
REMARK  141  A    between atoms: _318  and  _320
REMARK  142  A    between atoms: _320  and  _321
REMARK  143  A    between atoms: _320  and  _323
REMARK  144  A    between atoms: _323  and  _324
REMARK  145  A    between atoms: _330  and  _332
REMARK  146  A    between atoms: _332  and  _333
REMARK  147  A    between atoms: _335  and  _337
REMARK  148  A    between atoms: _337  and  _338
REMARK  149  A    between atoms: _337  and  _340
REMARK  150  A    between atoms: _343  and  _345
REMARK  151  A    between atoms: _345  and  _346
REMARK  152  A    between atoms: _348  and  _350
REMARK  153  A    between atoms: _350  and  _351
REMARK  154  A    between atoms: _350  and  _353
REMARK  155  A    between atoms: _353  and  _354
REMARK  156  A    between atoms: _360  and  _362
REMARK  157  A    between atoms: _362  and  _363
REMARK  158  A    between atoms: _362  and  _365
REMARK  159  A    between atoms: _365  and  _366
REMARK  160  A    between atoms: _371  and  _372
REMARK  161  A    between atoms: _374  and  _376
REMARK  162  A    between atoms: _376  and  _377
REMARK  163  A    between atoms: _376  and  _379
REMARK  164  A    between atoms: _379  and  _380
REMARK  165  A    between atoms: _382  and  _384
REMARK  166  A    between atoms: _384  and  _385
REMARK  167  A    between atoms: _388  and  _390
REMARK  168  A    between atoms: _390  and  _391
REMARK  169  A    between atoms: _390  and  _393
REMARK  170  A    between atoms: _396  and  _398
REMARK  171  A    between atoms: _398  and  _399
REMARK  172  A    between atoms: _398  and  _401
REMARK  173  A    between atoms: _404  and  _406
REMARK  174  A    between atoms: _406  and  _407
REMARK  175  A    between atoms: _406  and  _409
REMARK  176  A    between atoms: _409  and  _410
REMARK  177  A    between atoms: _413  and  _415
REMARK  178  A    between atoms: _415  and  _416
REMARK  179  A    between atoms: _415  and  _418
REMARK  180  A    between atoms: _418  and  _419
REMARK  181  A    between atoms: _422  and  _424
REMARK  182  A    between atoms: _424  and  _425
REMARK  183  A    between atoms: _424  and  _427
REMARK  184  A    between atoms: _427  and  _428
REMARK  185  A    between atoms: _428  and  _429
REMARK  186  A    between atoms: _429  and  _430
REMARK  187  A    between atoms: _430  and  _431
REMARK  188  A    between atoms: _435  and  _437
REMARK  189  A    between atoms: _437  and  _438
REMARK  190  A    between atoms: _437  and  _440
REMARK  191  A    between atoms: _440  and  _441
REMARK  192  A    between atoms: _446  and  _448
REMARK  193  A    between atoms: _448  and  _449
REMARK  194  A    between atoms: _448  and  _451
REMARK  195  A    between atoms: _451  and  _452
REMARK  196  A    between atoms: _457  and  _459
REMARK  197  A    between atoms: _459  and  _460
REMARK  198  A    between atoms: _459  and  _462
REMARK  199  A    between atoms: _462  and  _463
REMARK  200  A    between atoms: _466  and  _468
REMARK  201  A    between atoms: _468  and  _469
REMARK  202  A    between atoms: _471  and  _473
REMARK  203  A    between atoms: _473  and  _474
REMARK  204  A    between atoms: _473  and  _476
REMARK  205  A    between atoms: _476  and  _477
REMARK  206  A    between atoms: _480  and  _482
REMARK  207  A    between atoms: _482  and  _483
REMARK  208  A    between atoms: _482  and  _485
REMARK  209  A    between atoms: _485  and  _486
REMARK  210  A    between atoms: _486  and  _487
REMARK  211  A    between atoms: _487  and  _488
REMARK  212  A    between atoms: _488  and  _489
REMARK  213  A    between atoms: _493  and  _495
REMARK  214  A    between atoms: _495  and  _496
REMARK  215  A    between atoms: _495  and  _498
REMARK                            x       y       z     vdW  Elec       q    Type
REMARK                         _______ _______ _______ _____ _____    ______ ____
ROOT
ATOM      1  O   HOH     1      -4.375   8.757  13.966  0.00  0.00    +0.000 OA
ENDROOT
TORSDOF 0
REMARK  Name = ../refined-set-2016/4b7p/4b7p_pocket.pdb
REMARK  215 active torsions:
REMARK  status: ('A' for Active; 'I' for Inactive)
REMARK    1  A    between atoms: _1  and  _3
REMARK    2  A    between atoms: _3  and  _4
REMARK    3  A    between atoms: _3  and  _6
REMARK    4  A    between atoms: _6  and  _7
REMARK    5  A    between atoms: _10  and  _12
REMARK    6  A    between atoms: _12  and  _13
REMARK    7  A    between atoms: _12  and  _15
REMARK    8  A    between atoms: _15  and  _16
REMARK    9  A    between atoms: _22  and  _24
REMARK   10  A    between atoms: _24  and  _25
REMARK   11  A    between atoms: _24  and  _27
REMARK   12  A    between atoms: _27  and  _28
REMARK   13  A    between atoms: _31  and  _33
REMARK   14  A    between atoms: _33  and  _34
REMARK   15  A    between atoms: _33  and  _36
REMARK   16  A    between atoms: _36  and  _37
REMARK   17  A    between atoms: _37  and  _38
REMARK   18  A    between atoms: _41  and  _43
REMARK   19  A    between atoms: _43  and  _44
REMARK   20  A    between atoms: _43  and  _46
REMARK   21  A    between atoms: _46  and  _47
REMARK   22  A    between atoms: _50  and  _52
REMARK   23  A    between atoms: _52  and  _53
REMARK   24  A    between atoms: _52  and  _55
REMARK   25  A    between atoms: _55  and  _56
REMARK   26  A    between atoms: _59  and  _61
REMARK   27  A    between atoms: _61  and  _62
REMARK   28  A    between atoms: _61  and  _64
REMARK   29  A    between atoms: _64  and  _65
REMARK   30  A    between atoms: _67  and  _69
REMARK   31  A    between atoms: _69  and  _70
REMARK   32  A    between atoms: _69  and  _72
REMARK   33  A    between atoms: _72  and  _73
REMARK   34  A    between atoms: _78  and  _80
REMARK   35  A    between atoms: _80  and  _81
REMARK   36  A    between atoms: _80  and  _83
REMARK   37  A    between atoms: _83  and  _84
REMARK   38  A    between atoms: _86  and  _88
REMARK   39  A    between atoms: _88  and  _89
REMARK   40  A    between atoms: _88  and  _91
REMARK   41  A    between atoms: _91  and  _92
REMARK   42  A    between atoms: _94  and  _96
REMARK   43  A    between atoms: _96  and  _97
REMARK   44  A    between atoms: _96  and  _99
REMARK   45  A    between atoms: _99  and  _100
REMARK   46  A    between atoms: _103  and  _105
REMARK   47  A    between atoms: _105  and  _106
REMARK   48  A    between atoms: _109  and  _111
REMARK   49  A    between atoms: _111  and  _112
REMARK   50  A    between atoms: _111  and  _114
REMARK   51  A    between atoms: _114  and  _115
REMARK   52  A    between atoms: _118  and  _120
REMARK   53  A    between atoms: _120  and  _121
REMARK   54  A    between atoms: _120  and  _123
REMARK   55  A    between atoms: _123  and  _124
REMARK   56  A    between atoms: _127  and  _129
REMARK   57  A    between atoms: _129  and  _130
REMARK   58  A    between atoms: _129  and  _132
REMARK   59  A    between atoms: _132  and  _133
REMARK   60  A    between atoms: _133  and  _134
REMARK   61  A    between atoms: _134  and  _135
REMARK   62  A    between atoms: _135  and  _136
REMARK   63  A    between atoms: _140  and  _142
REMARK   64  A    between atoms: _142  and  _143
REMARK   65  A    between atoms: _142  and  _145
REMARK   66  A    between atoms: _145  and  _146
REMARK   67  A    between atoms: _149  and  _151
REMARK   68  A    between atoms: _151  and  _152
REMARK   69  A    between atoms: _151  and  _154
REMARK   70  A    between atoms: _154  and  _155
REMARK   71  A    between atoms: _155  and  _156
REMARK   72  A    between atoms: _159  and  _161
REMARK   73  A    between atoms: _161  and  _162
REMARK   74  A    between atoms: _161  and  _164
REMARK   75  A    between atoms: _164  and  _165
REMARK   76  A    between atoms: _168  and  _170
REMARK   77  A    between atoms: _170  and  _171
REMARK   78  A    between atoms: _170  and  _173
REMARK   79  A    between atoms: _176  and  _178
REMARK   80  A    between atoms: _178  and  _179
REMARK   81  A    between atoms: _178  and  _181
REMARK   82  A    between atoms: _181  and  _182
REMARK   83  A    between atoms: _185  and  _187
REMARK   84  A    between atoms: _187  and  _188
REMARK   85  A    between atoms: _187  and  _190
REMARK   86  A    between atoms: _190  and  _191
REMARK   87  A    between atoms: _194  and  _196
REMARK   88  A    between atoms: _196  and  _197
REMARK   89  A    between atoms: _199  and  _201
REMARK   90  A    between atoms: _201  and  _202
REMARK   91  A    between atoms: _201  and  _204
REMARK   92  A    between atoms: _204  and  _205
REMARK   93  A    between atoms: _208  and  _210
REMARK   94  A    between atoms: _210  and  _211
REMARK   95  A    between atoms: _213  and  _215
REMARK   96  A    between atoms: _215  and  _216
REMARK   97  A    between atoms: _215  and  _218
REMARK   98  A    between atoms: _218  and  _219
REMARK   99  A    between atoms: _219  and  _220
REMARK  100  A    between atoms: _222  and  _224
REMARK  101  A    between atoms: _224  and  _225
REMARK  102  A    between atoms: _224  and  _227
REMARK  103  A    between atoms: _227  and  _228
REMARK  104  A    between atoms: _231  and  _233
REMARK  105  A    between atoms: _233  and  _234
REMARK  106  A    between atoms: _237  and  _239
REMARK  107  A    between atoms: _239  and  _240
REMARK  108  A    between atoms: _239  and  _242
REMARK  109  A    between atoms: _242  and  _243
REMARK  110  A    between atoms: _246  and  _248
REMARK  111  A    between atoms: _248  and  _249
REMARK  112  A    between atoms: _248  and  _251
REMARK  113  A    between atoms: _251  and  _252
REMARK  114  A    between atoms: _255  and  _257
REMARK  115  A    between atoms: _257  and  _258
REMARK  116  A    between atoms: _257  and  _260
REMARK  117  A    between atoms: _260  and  _261
REMARK  118  A    between atoms: _266  and  _268
REMARK  119  A    between atoms: _268  and  _269
REMARK  120  A    between atoms: _268  and  _271
REMARK  121  A    between atoms: _271  and  _272
REMARK  122  A    between atoms: _277  and  _279
REMARK  123  A    between atoms: _279  and  _280
REMARK  124  A    between atoms: _279  and  _282
REMARK  125  A    between atoms: _282  and  _283
REMARK  126  A    between atoms: _286  and  _288
REMARK  127  A    between atoms: _288  and  _289
REMARK  128  A    between atoms: _291  and  _293
REMARK  129  A    between atoms: _293  and  _294
REMARK  130  A    between atoms: _293  and  _296
REMARK  131  A    between atoms: _296  and  _297
REMARK  132  A    between atoms: _300  and  _302
REMARK  133  A    between atoms: _302  and  _303
REMARK  134  A    between atoms: _302  and  _305
REMARK  135  A    between atoms: _305  and  _306
REMARK  136  A    between atoms: _306  and  _307
REMARK  137  A    between atoms: _307  and  _308
REMARK  138  A    between atoms: _308  and  _309
REMARK  139  A    between atoms: _313  and  _315
REMARK  140  A    between atoms: _315  and  _316
REMARK  141  A    between atoms: _318  and  _320
REMARK  142  A    between atoms: _320  and  _321
REMARK  143  A    between atoms: _320  and  _323
REMARK  144  A    between atoms: _323  and  _324
REMARK  145  A    between atoms: _330  and  _332
REMARK  146  A    between atoms: _332  and  _333
REMARK  147  A    between atoms: _335  and  _337
REMARK  148  A    between atoms: _337  and  _338
REMARK  149  A    between atoms: _337  and  _340
REMARK  150  A    between atoms: _343  and  _345
REMARK  151  A    between atoms: _345  and  _346
REMARK  152  A    between atoms: _348  and  _350
REMARK  153  A    between atoms: _350  and  _351
REMARK  154  A    between atoms: _350  and  _353
REMARK  155  A    between atoms: _353  and  _354
REMARK  156  A    between atoms: _360  and  _362
REMARK  157  A    between atoms: _362  and  _363
REMARK  158  A    between atoms: _362  and  _365
REMARK  159  A    between atoms: _365  and  _366
REMARK  160  A    between atoms: _371  and  _372
REMARK  161  A    between atoms: _374  and  _376
REMARK  162  A    between atoms: _376  and  _377
REMARK  163  A    between atoms: _376  and  _379
REMARK  164  A    between atoms: _379  and  _380
REMARK  165  A    between atoms: _382  and  _384
REMARK  166  A    between atoms: _384  and  _385
REMARK  167  A    between atoms: _388  and  _390
REMARK  168  A    between atoms: _390  and  _391
REMARK  169  A    between atoms: _390  and  _393
REMARK  170  A    between atoms: _396  and  _398
REMARK  171  A    between atoms: _398  and  _399
REMARK  172  A    between atoms: _398  and  _401
REMARK  173  A    between atoms: _404  and  _406
REMARK  174  A    between atoms: _406  and  _407
REMARK  175  A    between atoms: _406  and  _409
REMARK  176  A    between atoms: _409  and  _410
REMARK  177  A    between atoms: _413  and  _415
REMARK  178  A    between atoms: _415  and  _416
REMARK  179  A    between atoms: _415  and  _418
REMARK  180  A    between atoms: _418  and  _419
REMARK  181  A    between atoms: _422  and  _424
REMARK  182  A    between atoms: _424  and  _425
REMARK  183  A    between atoms: _424  and  _427
REMARK  184  A    between atoms: _427  and  _428
REMARK  185  A    between atoms: _428  and  _429
REMARK  186  A    between atoms: _429  and  _430
REMARK  187  A    between atoms: _430  and  _431
REMARK  188  A    between atoms: _435  and  _437
REMARK  189  A    between atoms: _437  and  _438
REMARK  190  A    between atoms: _437  and  _440
REMARK  191  A    between atoms: _440  and  _441
REMARK  192  A    between atoms: _446  and  _448
REMARK  193  A    between atoms: _448  and  _449
REMARK  194  A    between atoms: _448  and  _451
REMARK  195  A    between atoms: _451  and  _452
REMARK  196  A    between atoms: _457  and  _459
REMARK  197  A    between atoms: _459  and  _460
REMARK  198  A    between atoms: _459  and  _462
REMARK  199  A    between atoms: _462  and  _463
REMARK  200  A    between atoms: _466  and  _468
REMARK  201  A    between atoms: _468  and  _469
REMARK  202  A    between atoms: _471  and  _473
REMARK  203  A    between atoms: _473  and  _474
REMARK  204  A    between atoms: _473  and  _476
REMARK  205  A    between atoms: _476  and  _477
REMARK  206  A    between atoms: _480  and  _482
REMARK  207  A    between atoms: _482  and  _483
REMARK  208  A    between atoms: _482  and  _485
REMARK  209  A    between atoms: _485  and  _486
REMARK  210  A    between atoms: _486  and  _487
REMARK  211  A    between atoms: _487  and  _488
REMARK  212  A    between atoms: _488  and  _489
REMARK  213  A    between atoms: _493  and  _495
REMARK  214  A    between atoms: _495  and  _496
REMARK  215  A    between atoms: _495  and  _498
REMARK                            x       y       z     vdW  Elec       q    Type
REMARK                         _______ _______ _______ _____ _____    ______ ____
ROOT
ATOM      1  O   HOH     1       0.857   1.609   8.189  0.00  0.00    +0.000 OA
ENDROOT
TORSDOF 0
