REMARK  Name = ../refined-set-2016/2vwo/2vwo_pocket.pdb
REMARK  221 active torsions:
REMARK  status: ('A' for Active; 'I' for Inactive)
REMARK    1  A    between atoms: _1  and  _5
REMARK    2  A    between atoms: _5  and  _6
REMARK    3  A    between atoms: _5  and  _8
REMARK    4  A    between atoms: _8  and  _9
REMARK    5  A    between atoms: _12  and  _14
REMARK    6  A    between atoms: _14  and  _15
REMARK    7  A    between atoms: _14  and  _17
REMARK    8  A    between atoms: _20  and  _22
REMARK    9  A    between atoms: _22  and  _23
REMARK   10  A    between atoms: _22  and  _25
REMARK   11  A    between atoms: _25  and  _26
REMARK   12  A    between atoms: _31  and  _33
REMARK   13  A    between atoms: _33  and  _34
REMARK   14  A    between atoms: _33  and  _36
REMARK   15  A    between atoms: _36  and  _37
REMARK   16  A    between atoms: _37  and  _38
REMARK   17  A    between atoms: _43  and  _45
REMARK   18  A    between atoms: _45  and  _46
REMARK   19  A    between atoms: _45  and  _48
REMARK   20  A    between atoms: _48  and  _49
REMARK   21  A    between atoms: _52  and  _54
REMARK   22  A    between atoms: _54  and  _55
REMARK   23  A    between atoms: _54  and  _57
REMARK   24  A    between atoms: _57  and  _58
REMARK   25  A    between atoms: _58  and  _59
REMARK   26  A    between atoms: _59  and  _60
REMARK   27  A    between atoms: _60  and  _61
REMARK   28  A    between atoms: _65  and  _67
REMARK   29  A    between atoms: _67  and  _68
REMARK   30  A    between atoms: _67  and  _70
REMARK   31  A    between atoms: _70  and  _71
REMARK   32  A    between atoms: _71  and  _72
REMARK   33  A    between atoms: _75  and  _77
REMARK   34  A    between atoms: _77  and  _78
REMARK   35  A    between atoms: _77  and  _80
REMARK   36  A    between atoms: _80  and  _81
REMARK   37  A    between atoms: _84  and  _86
REMARK   38  A    between atoms: _86  and  _87
REMARK   39  A    between atoms: _86  and  _89
REMARK   40  A    between atoms: _89  and  _90
REMARK   41  A    between atoms: _95  and  _96
REMARK   42  A    between atoms: _98  and  _100
REMARK   43  A    between atoms: _100  and  _101
REMARK   44  A    between atoms: _100  and  _103
REMARK   45  A    between atoms: _103  and  _104
REMARK   46  A    between atoms: _107  and  _109
REMARK   47  A    between atoms: _109  and  _110
REMARK   48  A    between atoms: _109  and  _112
REMARK   49  A    between atoms: _112  and  _113
REMARK   50  A    between atoms: _116  and  _118
REMARK   51  A    between atoms: _118  and  _119
REMARK   52  A    between atoms: _118  and  _121
REMARK   53  A    between atoms: _124  and  _126
REMARK   54  A    between atoms: _126  and  _127
REMARK   55  A    between atoms: _126  and  _129
REMARK   56  A    between atoms: _129  and  _130
REMARK   57  A    between atoms: _130  and  _131
REMARK   58  A    between atoms: _131  and  _132
REMARK   59  A    between atoms: _141  and  _143
REMARK   60  A    between atoms: _143  and  _144
REMARK   61  A    between atoms: _143  and  _146
REMARK   62  A    between atoms: _146  and  _147
REMARK   63  A    between atoms: _152  and  _154
REMARK   64  A    between atoms: _154  and  _155
REMARK   65  A    between atoms: _154  and  _157
REMARK   66  A    between atoms: _157  and  _158
REMARK   67  A    between atoms: _158  and  _159
REMARK   68  A    between atoms: _162  and  _164
REMARK   69  A    between atoms: _164  and  _165
REMARK   70  A    between atoms: _164  and  _167
REMARK   71  A    between atoms: _167  and  _168
REMARK   72  A    between atoms: _168  and  _169
REMARK   73  A    between atoms: _169  and  _170
REMARK   74  A    between atoms: _170  and  _171
REMARK   75  A    between atoms: _175  and  _177
REMARK   76  A    between atoms: _177  and  _178
REMARK   77  A    between atoms: _180  and  _182
REMARK   78  A    between atoms: _182  and  _183
REMARK   79  A    between atoms: _182  and  _185
REMARK   80  A    between atoms: _188  and  _190
REMARK   81  A    between atoms: _190  and  _191
REMARK   82  A    between atoms: _190  and  _193
REMARK   83  A    between atoms: _193  and  _194
REMARK   84  A    between atoms: _196  and  _198
REMARK   85  A    between atoms: _198  and  _199
REMARK   86  A    between atoms: _198  and  _201
REMARK   87  A    between atoms: _201  and  _202
REMARK   88  A    between atoms: _204  and  _206
REMARK   89  A    between atoms: _206  and  _207
REMARK   90  A    between atoms: _206  and  _209
REMARK   91  A    between atoms: _209  and  _210
REMARK   92  A    between atoms: _216  and  _218
REMARK   93  A    between atoms: _218  and  _219
REMARK   94  A    between atoms: _218  and  _221
REMARK   95  A    between atoms: _221  and  _222
REMARK   96  A    between atoms: _225  and  _227
REMARK   97  A    between atoms: _227  and  _228
REMARK   98  A    between atoms: _227  and  _230
REMARK   99  A    between atoms: _230  and  _231
REMARK  100  A    between atoms: _234  and  _236
REMARK  101  A    between atoms: _236  and  _237
REMARK  102  A    between atoms: _236  and  _239
REMARK  103  A    between atoms: _239  and  _240
REMARK  104  A    between atoms: _243  and  _245
REMARK  105  A    between atoms: _245  and  _246
REMARK  106  A    between atoms: _245  and  _248
REMARK  107  A    between atoms: _248  and  _249
REMARK  108  A    between atoms: _249  and  _250
REMARK  109  A    between atoms: _252  and  _254
REMARK  110  A    between atoms: _254  and  _255
REMARK  111  A    between atoms: _254  and  _257
REMARK  112  A    between atoms: _257  and  _258
REMARK  113  A    between atoms: _264  and  _266
REMARK  114  A    between atoms: _266  and  _267
REMARK  115  A    between atoms: _266  and  _269
REMARK  116  A    between atoms: _271  and  _273
REMARK  117  A    between atoms: _273  and  _274
REMARK  118  A    between atoms: _277  and  _279
REMARK  119  A    between atoms: _279  and  _280
REMARK  120  A    between atoms: _282  and  _284
REMARK  121  A    between atoms: _284  and  _285
REMARK  122  A    between atoms: _284  and  _287
REMARK  123  A    between atoms: _287  and  _288
REMARK  124  A    between atoms: _288  and  _289
REMARK  125  A    between atoms: _292  and  _294
REMARK  126  A    between atoms: _294  and  _295
REMARK  127  A    between atoms: _294  and  _297
REMARK  128  A    between atoms: _297  and  _298
REMARK  129  A    between atoms: _301  and  _303
REMARK  130  A    between atoms: _303  and  _304
REMARK  131  A    between atoms: _307  and  _309
REMARK  132  A    between atoms: _309  and  _310
REMARK  133  A    between atoms: _309  and  _312
REMARK  134  A    between atoms: _312  and  _313
REMARK  135  A    between atoms: _313  and  _436
REMARK  136  A    between atoms: _314  and  _316
REMARK  137  A    between atoms: _316  and  _317
REMARK  138  A    between atoms: _316  and  _319
REMARK  139  A    between atoms: _319  and  _320
REMARK  140  A    between atoms: _320  and  _321
REMARK  141  A    between atoms: _326  and  _328
REMARK  142  A    between atoms: _328  and  _329
REMARK  143  A    between atoms: _331  and  _333
REMARK  144  A    between atoms: _333  and  _334
REMARK  145  A    between atoms: _333  and  _336
REMARK  146  A    between atoms: _336  and  _337
REMARK  147  A    between atoms: _340  and  _342
REMARK  148  A    between atoms: _342  and  _343
REMARK  149  A    between atoms: _342  and  _345
REMARK  150  A    between atoms: _345  and  _346
REMARK  151  A    between atoms: _348  and  _350
REMARK  152  A    between atoms: _350  and  _351
REMARK  153  A    between atoms: _353  and  _355
REMARK  154  A    between atoms: _355  and  _356
REMARK  155  A    between atoms: _358  and  _360
REMARK  156  A    between atoms: _360  and  _361
REMARK  157  A    between atoms: _360  and  _363
REMARK  158  A    between atoms: _363  and  _364
REMARK  159  A    between atoms: _369  and  _371
REMARK  160  A    between atoms: _371  and  _372
REMARK  161  A    between atoms: _371  and  _374
REMARK  162  A    between atoms: _374  and  _375
REMARK  163  A    between atoms: _378  and  _380
REMARK  164  A    between atoms: _380  and  _381
REMARK  165  A    between atoms: _380  and  _383
REMARK  166  A    between atoms: _386  and  _388
REMARK  167  A    between atoms: _388  and  _389
REMARK  168  A    between atoms: _388  and  _391
REMARK  169  A    between atoms: _391  and  _392
REMARK  170  A    between atoms: _394  and  _396
REMARK  171  A    between atoms: _396  and  _397
REMARK  172  A    between atoms: _396  and  _399
REMARK  173  A    between atoms: _399  and  _400
REMARK  174  A    between atoms: _410  and  _412
REMARK  175  A    between atoms: _412  and  _413
REMARK  176  A    between atoms: _415  and  _417
REMARK  177  A    between atoms: _417  and  _418
REMARK  178  A    between atoms: _417  and  _420
REMARK  179  A    between atoms: _420  and  _421
REMARK  180  A    between atoms: _421  and  _422
REMARK  181  A    between atoms: _425  and  _427
REMARK  182  A    between atoms: _427  and  _428
REMARK  183  A    between atoms: _430  and  _432
REMARK  184  A    between atoms: _432  and  _433
REMARK  185  A    between atoms: _432  and  _435
REMARK  186  A    between atoms: _435  and  _436
REMARK  187  A    between atoms: _437  and  _439
REMARK  188  A    between atoms: _439  and  _440
REMARK  189  A    between atoms: _443  and  _445
REMARK  190  A    between atoms: _445  and  _446
REMARK  191  A    between atoms: _445  and  _448
REMARK  192  A    between atoms: _448  and  _449
REMARK  193  A    between atoms: _449  and  _450
REMARK  194  A    between atoms: _450  and  _451
REMARK  195  A    between atoms: _460  and  _462
REMARK  196  A    between atoms: _462  and  _463
REMARK  197  A    between atoms: _462  and  _465
REMARK  198  A    between atoms: _465  and  _466
REMARK  199  A    between atoms: _466  and  _467
REMARK  200  A    between atoms: _467  and  _468
REMARK  201  A    between atoms: _468  and  _469
REMARK  202  A    between atoms: _473  and  _475
REMARK  203  A    between atoms: _475  and  _476
REMARK  204  A    between atoms: _475  and  _478
REMARK  205  A    between atoms: _478  and  _479
REMARK  206  A    between atoms: _484  and  _485
REMARK  207  A    between atoms: _487  and  _489
REMARK  208  A    between atoms: _489  and  _490
REMARK  209  A    between atoms: _492  and  _494
REMARK  210  A    between atoms: _494  and  _495
REMARK  211  A    between atoms: _494  and  _497
REMARK  212  A    between atoms: _497  and  _498
REMARK  213  A    between atoms: _501  and  _503
REMARK  214  A    between atoms: _503  and  _504
REMARK  215  A    between atoms: _503  and  _506
REMARK  216  A    between atoms: _506  and  _507
REMARK  217  A    between atoms: _512  and  _513
REMARK  218  A    between atoms: _515  and  _517
REMARK  219  A    between atoms: _517  and  _518
REMARK  220  A    between atoms: _517  and  _520
REMARK  221  A    between atoms: _520  and  _521
REMARK                            x       y       z     vdW  Elec       q    Type
REMARK                         _______ _______ _______ _____ _____    ______ ____
ROOT
ATOM      1  C   ILE A   1      19.773  71.807   7.888  0.00  0.00    +0.202 C 
ATOM      2  N   VAL A   2      18.938  71.469   8.872  0.00  0.00    -0.301 N 
ATOM      3  H   VAL A   2      18.617  70.482   8.936  0.00  0.00    +0.150 HD
ATOM      4  O   ILE A   1      20.142  72.964   7.684  0.00  0.00    -0.277 OA
ENDROOT
BRANCH   1   5
ATOM      5  CA  ILE A   1      20.265  70.661   6.985  0.00  0.00    +0.013 C 
BRANCH   5   6
ATOM      6  N   ILE A   1      19.926  70.962   5.557  0.00  0.00    +0.387 N 
ATOM      7  H1  ILE A   1      18.895  71.060   5.460  0.00  0.00    -0.089 HD
ATOM      8  H2  ILE A   1      20.388  71.849   5.272  0.00  0.00    -0.089 HD
ATOM      9  H3  ILE A   1      20.260  70.185   4.951  0.00  0.00    -0.089 HD
ENDBRANCH   5   6
BRANCH   5  10
ATOM     10  CB  ILE A   1      21.794  70.465   7.171  0.00  0.00    -0.011 C 
ATOM     11  CG2 ILE A   1      22.118  70.237   8.636  0.00  0.00    -0.002 C 
BRANCH  10  12
ATOM     12  CG1 ILE A   1      22.329  69.326   6.297  0.00  0.00    -0.002 C 
ATOM     13  CD1 ILE A   1      21.867  67.915   6.744  0.00  0.00    -0.000 C 
ENDBRANCH  10  12
ENDBRANCH   5  10
ENDBRANCH   1   5
BRANCH   2  14
ATOM     14  CA  VAL A   2      18.451  72.436   9.872  0.00  0.00    +0.137 C 
BRANCH  14  15
ATOM     15  CB  VAL A   2      17.036  72.074  10.364  0.00  0.00    +0.026 C 
ATOM     16  CG2 VAL A   2      16.555  73.105  11.364  0.00  0.00    +0.002 C 
ATOM     17  CG1 VAL A   2      16.085  71.997   9.213  0.00  0.00    +0.002 C 
ENDBRANCH  14  15
BRANCH  14  18
ATOM     18  C   VAL A   2      19.394  72.352  11.064  0.00  0.00    +0.227 C 
ATOM     19  O   VAL A   2      19.694  71.263  11.554  0.00  0.00    -0.286 OA
ENDBRANCH  14  18
ENDBRANCH   2  14
TORSDOF 7
REMARK  Name = ../refined-set-2016/2vwo/2vwo_pocket.pdb
REMARK  221 active torsions:
REMARK  status: ('A' for Active; 'I' for Inactive)
REMARK    1  A    between atoms: _1  and  _5
REMARK    2  A    between atoms: _5  and  _6
REMARK    3  A    between atoms: _5  and  _8
REMARK    4  A    between atoms: _8  and  _9
REMARK    5  A    between atoms: _12  and  _14
REMARK    6  A    between atoms: _14  and  _15
REMARK    7  A    between atoms: _14  and  _17
REMARK    8  A    between atoms: _20  and  _22
REMARK    9  A    between atoms: _22  and  _23
REMARK   10  A    between atoms: _22  and  _25
REMARK   11  A    between atoms: _25  and  _26
REMARK   12  A    between atoms: _31  and  _33
REMARK   13  A    between atoms: _33  and  _34
REMARK   14  A    between atoms: _33  and  _36
REMARK   15  A    between atoms: _36  and  _37
REMARK   16  A    between atoms: _37  and  _38
REMARK   17  A    between atoms: _43  and  _45
REMARK   18  A    between atoms: _45  and  _46
REMARK   19  A    between atoms: _45  and  _48
REMARK   20  A    between atoms: _48  and  _49
REMARK   21  A    between atoms: _52  and  _54
REMARK   22  A    between atoms: _54  and  _55
REMARK   23  A    between atoms: _54  and  _57
REMARK   24  A    between atoms: _57  and  _58
REMARK   25  A    between atoms: _58  and  _59
REMARK   26  A    between atoms: _59  and  _60
REMARK   27  A    between atoms: _60  and  _61
REMARK   28  A    between atoms: _65  and  _67
REMARK   29  A    between atoms: _67  and  _68
REMARK   30  A    between atoms: _67  and  _70
REMARK   31  A    between atoms: _70  and  _71
REMARK   32  A    between atoms: _71  and  _72
REMARK   33  A    between atoms: _75  and  _77
REMARK   34  A    between atoms: _77  and  _78
REMARK   35  A    between atoms: _77  and  _80
REMARK   36  A    between atoms: _80  and  _81
REMARK   37  A    between atoms: _84  and  _86
REMARK   38  A    between atoms: _86  and  _87
REMARK   39  A    between atoms: _86  and  _89
REMARK   40  A    between atoms: _89  and  _90
REMARK   41  A    between atoms: _95  and  _96
REMARK   42  A    between atoms: _98  and  _100
REMARK   43  A    between atoms: _100  and  _101
REMARK   44  A    between atoms: _100  and  _103
REMARK   45  A    between atoms: _103  and  _104
REMARK   46  A    between atoms: _107  and  _109
REMARK   47  A    between atoms: _109  and  _110
REMARK   48  A    between atoms: _109  and  _112
REMARK   49  A    between atoms: _112  and  _113
REMARK   50  A    between atoms: _116  and  _118
REMARK   51  A    between atoms: _118  and  _119
REMARK   52  A    between atoms: _118  and  _121
REMARK   53  A    between atoms: _124  and  _126
REMARK   54  A    between atoms: _126  and  _127
REMARK   55  A    between atoms: _126  and  _129
REMARK   56  A    between atoms: _129  and  _130
REMARK   57  A    between atoms: _130  and  _131
REMARK   58  A    between atoms: _131  and  _132
REMARK   59  A    between atoms: _141  and  _143
REMARK   60  A    between atoms: _143  and  _144
REMARK   61  A    between atoms: _143  and  _146
REMARK   62  A    between atoms: _146  and  _147
REMARK   63  A    between atoms: _152  and  _154
REMARK   64  A    between atoms: _154  and  _155
REMARK   65  A    between atoms: _154  and  _157
REMARK   66  A    between atoms: _157  and  _158
REMARK   67  A    between atoms: _158  and  _159
REMARK   68  A    between atoms: _162  and  _164
REMARK   69  A    between atoms: _164  and  _165
REMARK   70  A    between atoms: _164  and  _167
REMARK   71  A    between atoms: _167  and  _168
REMARK   72  A    between atoms: _168  and  _169
REMARK   73  A    between atoms: _169  and  _170
REMARK   74  A    between atoms: _170  and  _171
REMARK   75  A    between atoms: _175  and  _177
REMARK   76  A    between atoms: _177  and  _178
REMARK   77  A    between atoms: _180  and  _182
REMARK   78  A    between atoms: _182  and  _183
REMARK   79  A    between atoms: _182  and  _185
REMARK   80  A    between atoms: _188  and  _190
REMARK   81  A    between atoms: _190  and  _191
REMARK   82  A    between atoms: _190  and  _193
REMARK   83  A    between atoms: _193  and  _194
REMARK   84  A    between atoms: _196  and  _198
REMARK   85  A    between atoms: _198  and  _199
REMARK   86  A    between atoms: _198  and  _201
REMARK   87  A    between atoms: _201  and  _202
REMARK   88  A    between atoms: _204  and  _206
REMARK   89  A    between atoms: _206  and  _207
REMARK   90  A    between atoms: _206  and  _209
REMARK   91  A    between atoms: _209  and  _210
REMARK   92  A    between atoms: _216  and  _218
REMARK   93  A    between atoms: _218  and  _219
REMARK   94  A    between atoms: _218  and  _221
REMARK   95  A    between atoms: _221  and  _222
REMARK   96  A    between atoms: _225  and  _227
REMARK   97  A    between atoms: _227  and  _228
REMARK   98  A    between atoms: _227  and  _230
REMARK   99  A    between atoms: _230  and  _231
REMARK  100  A    between atoms: _234  and  _236
REMARK  101  A    between atoms: _236  and  _237
REMARK  102  A    between atoms: _236  and  _239
REMARK  103  A    between atoms: _239  and  _240
REMARK  104  A    between atoms: _243  and  _245
REMARK  105  A    between atoms: _245  and  _246
REMARK  106  A    between atoms: _245  and  _248
REMARK  107  A    between atoms: _248  and  _249
REMARK  108  A    between atoms: _249  and  _250
REMARK  109  A    between atoms: _252  and  _254
REMARK  110  A    between atoms: _254  and  _255
REMARK  111  A    between atoms: _254  and  _257
REMARK  112  A    between atoms: _257  and  _258
REMARK  113  A    between atoms: _264  and  _266
REMARK  114  A    between atoms: _266  and  _267
REMARK  115  A    between atoms: _266  and  _269
REMARK  116  A    between atoms: _271  and  _273
REMARK  117  A    between atoms: _273  and  _274
REMARK  118  A    between atoms: _277  and  _279
REMARK  119  A    between atoms: _279  and  _280
REMARK  120  A    between atoms: _282  and  _284
REMARK  121  A    between atoms: _284  and  _285
REMARK  122  A    between atoms: _284  and  _287
REMARK  123  A    between atoms: _287  and  _288
REMARK  124  A    between atoms: _288  and  _289
REMARK  125  A    between atoms: _292  and  _294
REMARK  126  A    between atoms: _294  and  _295
REMARK  127  A    between atoms: _294  and  _297
REMARK  128  A    between atoms: _297  and  _298
REMARK  129  A    between atoms: _301  and  _303
REMARK  130  A    between atoms: _303  and  _304
REMARK  131  A    between atoms: _307  and  _309
REMARK  132  A    between atoms: _309  and  _310
REMARK  133  A    between atoms: _309  and  _312
REMARK  134  A    between atoms: _312  and  _313
REMARK  135  A    between atoms: _313  and  _436
REMARK  136  A    between atoms: _314  and  _316
REMARK  137  A    between atoms: _316  and  _317
REMARK  138  A    between atoms: _316  and  _319
REMARK  139  A    between atoms: _319  and  _320
REMARK  140  A    between atoms: _320  and  _321
REMARK  141  A    between atoms: _326  and  _328
REMARK  142  A    between atoms: _328  and  _329
REMARK  143  A    between atoms: _331  and  _333
REMARK  144  A    between atoms: _333  and  _334
REMARK  145  A    between atoms: _333  and  _336
REMARK  146  A    between atoms: _336  and  _337
REMARK  147  A    between atoms: _340  and  _342
REMARK  148  A    between atoms: _342  and  _343
REMARK  149  A    between atoms: _342  and  _345
REMARK  150  A    between atoms: _345  and  _346
REMARK  151  A    between atoms: _348  and  _350
REMARK  152  A    between atoms: _350  and  _351
REMARK  153  A    between atoms: _353  and  _355
REMARK  154  A    between atoms: _355  and  _356
REMARK  155  A    between atoms: _358  and  _360
REMARK  156  A    between atoms: _360  and  _361
REMARK  157  A    between atoms: _360  and  _363
REMARK  158  A    between atoms: _363  and  _364
REMARK  159  A    between atoms: _369  and  _371
REMARK  160  A    between atoms: _371  and  _372
REMARK  161  A    between atoms: _371  and  _374
REMARK  162  A    between atoms: _374  and  _375
REMARK  163  A    between atoms: _378  and  _380
REMARK  164  A    between atoms: _380  and  _381
REMARK  165  A    between atoms: _380  and  _383
REMARK  166  A    between atoms: _386  and  _388
REMARK  167  A    between atoms: _388  and  _389
REMARK  168  A    between atoms: _388  and  _391
REMARK  169  A    between atoms: _391  and  _392
REMARK  170  A    between atoms: _394  and  _396
REMARK  171  A    between atoms: _396  and  _397
REMARK  172  A    between atoms: _396  and  _399
REMARK  173  A    between atoms: _399  and  _400
REMARK  174  A    between atoms: _410  and  _412
REMARK  175  A    between atoms: _412  and  _413
REMARK  176  A    between atoms: _415  and  _417
REMARK  177  A    between atoms: _417  and  _418
REMARK  178  A    between atoms: _417  and  _420
REMARK  179  A    between atoms: _420  and  _421
REMARK  180  A    between atoms: _421  and  _422
REMARK  181  A    between atoms: _425  and  _427
REMARK  182  A    between atoms: _427  and  _428
REMARK  183  A    between atoms: _430  and  _432
REMARK  184  A    between atoms: _432  and  _433
REMARK  185  A    between atoms: _432  and  _435
REMARK  186  A    between atoms: _435  and  _436
REMARK  187  A    between atoms: _437  and  _439
REMARK  188  A    between atoms: _439  and  _440
REMARK  189  A    between atoms: _443  and  _445
REMARK  190  A    between atoms: _445  and  _446
REMARK  191  A    between atoms: _445  and  _448
REMARK  192  A    between atoms: _448  and  _449
REMARK  193  A    between atoms: _449  and  _450
REMARK  194  A    between atoms: _450  and  _451
REMARK  195  A    between atoms: _460  and  _462
REMARK  196  A    between atoms: _462  and  _463
REMARK  197  A    between atoms: _462  and  _465
REMARK  198  A    between atoms: _465  and  _466
REMARK  199  A    between atoms: _466  and  _467
REMARK  200  A    between atoms: _467  and  _468
REMARK  201  A    between atoms: _468  and  _469
REMARK  202  A    between atoms: _473  and  _475
REMARK  203  A    between atoms: _475  and  _476
REMARK  204  A    between atoms: _475  and  _478
REMARK  205  A    between atoms: _478  and  _479
REMARK  206  A    between atoms: _484  and  _485
REMARK  207  A    between atoms: _487  and  _489
REMARK  208  A    between atoms: _489  and  _490
REMARK  209  A    between atoms: _492  and  _494
REMARK  210  A    between atoms: _494  and  _495
REMARK  211  A    between atoms: _494  and  _497
REMARK  212  A    between atoms: _497  and  _498
REMARK  213  A    between atoms: _501  and  _503
REMARK  214  A    between atoms: _503  and  _504
REMARK  215  A    between atoms: _503  and  _506
REMARK  216  A    between atoms: _506  and  _507
REMARK  217  A    between atoms: _512  and  _513
REMARK  218  A    between atoms: _515  and  _517
REMARK  219  A    between atoms: _517  and  _518
REMARK  220  A    between atoms: _517  and  _520
REMARK  221  A    between atoms: _520  and  _521
REMARK                            x       y       z     vdW  Elec       q    Type
REMARK                         _______ _______ _______ _____ _____    ______ ____
ROOT
ATOM      1  CB  HIS A   1      12.523  58.693  -3.391  0.00  0.00    +0.072 C 
ENDROOT
BRANCH   1   2
ATOM      2  CG  HIS A   1      13.209  59.705  -2.522  0.00  0.00    +0.082 A 
ATOM      3  ND1 HIS A   1      13.950  59.363  -1.398  0.00  0.00    -0.227 NA
ATOM      4  CE1 HIS A   1      14.410  60.468  -0.832  0.00  0.00    +0.199 A 
ATOM      5  NE2 HIS A   1      13.971  61.507  -1.530  0.00  0.00    -0.221 NA
ATOM      6  CD2 HIS A   1      13.233  61.052  -2.596  0.00  0.00    +0.115 A 
ENDBRANCH   1   2
BRANCH   1   7
ATOM      7  CA  HIS A   1      13.262  58.384  -4.714  0.00  0.00    +0.139 C 
BRANCH   7   8
ATOM      8  N   HIS A   1      14.328  57.381  -4.528  0.00  0.00    -0.239 NA
ATOM      9  H   HIS A   1      14.625  57.113  -3.568  0.00  0.00    +0.142 HD
ENDBRANCH   7   8
BRANCH   7  10
ATOM     10  C   HIS A   1      13.750  59.653  -5.413  0.00  0.00    +0.224 C 
ATOM     11  O   HIS A   1      12.932  60.371  -6.000  0.00  0.00    -0.287 OA
ENDBRANCH   7  10
ENDBRANCH   1   7
TORSDOF 4
REMARK  Name = ../refined-set-2016/2vwo/2vwo_pocket.pdb
REMARK  221 active torsions:
REMARK  status: ('A' for Active; 'I' for Inactive)
REMARK    1  A    between atoms: _1  and  _5
REMARK    2  A    between atoms: _5  and  _6
REMARK    3  A    between atoms: _5  and  _8
REMARK    4  A    between atoms: _8  and  _9
REMARK    5  A    between atoms: _12  and  _14
REMARK    6  A    between atoms: _14  and  _15
REMARK    7  A    between atoms: _14  and  _17
REMARK    8  A    between atoms: _20  and  _22
REMARK    9  A    between atoms: _22  and  _23
REMARK   10  A    between atoms: _22  and  _25
REMARK   11  A    between atoms: _25  and  _26
REMARK   12  A    between atoms: _31  and  _33
REMARK   13  A    between atoms: _33  and  _34
REMARK   14  A    between atoms: _33  and  _36
REMARK   15  A    between atoms: _36  and  _37
REMARK   16  A    between atoms: _37  and  _38
REMARK   17  A    between atoms: _43  and  _45
REMARK   18  A    between atoms: _45  and  _46
REMARK   19  A    between atoms: _45  and  _48
REMARK   20  A    between atoms: _48  and  _49
REMARK   21  A    between atoms: _52  and  _54
REMARK   22  A    between atoms: _54  and  _55
REMARK   23  A    between atoms: _54  and  _57
REMARK   24  A    between atoms: _57  and  _58
REMARK   25  A    between atoms: _58  and  _59
REMARK   26  A    between atoms: _59  and  _60
REMARK   27  A    between atoms: _60  and  _61
REMARK   28  A    between atoms: _65  and  _67
REMARK   29  A    between atoms: _67  and  _68
REMARK   30  A    between atoms: _67  and  _70
REMARK   31  A    between atoms: _70  and  _71
REMARK   32  A    between atoms: _71  and  _72
REMARK   33  A    between atoms: _75  and  _77
REMARK   34  A    between atoms: _77  and  _78
REMARK   35  A    between atoms: _77  and  _80
REMARK   36  A    between atoms: _80  and  _81
REMARK   37  A    between atoms: _84  and  _86
REMARK   38  A    between atoms: _86  and  _87
REMARK   39  A    between atoms: _86  and  _89
REMARK   40  A    between atoms: _89  and  _90
REMARK   41  A    between atoms: _95  and  _96
REMARK   42  A    between atoms: _98  and  _100
REMARK   43  A    between atoms: _100  and  _101
REMARK   44  A    between atoms: _100  and  _103
REMARK   45  A    between atoms: _103  and  _104
REMARK   46  A    between atoms: _107  and  _109
REMARK   47  A    between atoms: _109  and  _110
REMARK   48  A    between atoms: _109  and  _112
REMARK   49  A    between atoms: _112  and  _113
REMARK   50  A    between atoms: _116  and  _118
REMARK   51  A    between atoms: _118  and  _119
REMARK   52  A    between atoms: _118  and  _121
REMARK   53  A    between atoms: _124  and  _126
REMARK   54  A    between atoms: _126  and  _127
REMARK   55  A    between atoms: _126  and  _129
REMARK   56  A    between atoms: _129  and  _130
REMARK   57  A    between atoms: _130  and  _131
REMARK   58  A    between atoms: _131  and  _132
REMARK   59  A    between atoms: _141  and  _143
REMARK   60  A    between atoms: _143  and  _144
REMARK   61  A    between atoms: _143  and  _146
REMARK   62  A    between atoms: _146  and  _147
REMARK   63  A    between atoms: _152  and  _154
REMARK   64  A    between atoms: _154  and  _155
REMARK   65  A    between atoms: _154  and  _157
REMARK   66  A    between atoms: _157  and  _158
REMARK   67  A    between atoms: _158  and  _159
REMARK   68  A    between atoms: _162  and  _164
REMARK   69  A    between atoms: _164  and  _165
REMARK   70  A    between atoms: _164  and  _167
REMARK   71  A    between atoms: _167  and  _168
REMARK   72  A    between atoms: _168  and  _169
REMARK   73  A    between atoms: _169  and  _170
REMARK   74  A    between atoms: _170  and  _171
REMARK   75  A    between atoms: _175  and  _177
REMARK   76  A    between atoms: _177  and  _178
REMARK   77  A    between atoms: _180  and  _182
REMARK   78  A    between atoms: _182  and  _183
REMARK   79  A    between atoms: _182  and  _185
REMARK   80  A    between atoms: _188  and  _190
REMARK   81  A    between atoms: _190  and  _191
REMARK   82  A    between atoms: _190  and  _193
REMARK   83  A    between atoms: _193  and  _194
REMARK   84  A    between atoms: _196  and  _198
REMARK   85  A    between atoms: _198  and  _199
REMARK   86  A    between atoms: _198  and  _201
REMARK   87  A    between atoms: _201  and  _202
REMARK   88  A    between atoms: _204  and  _206
REMARK   89  A    between atoms: _206  and  _207
REMARK   90  A    between atoms: _206  and  _209
REMARK   91  A    between atoms: _209  and  _210
REMARK   92  A    between atoms: _216  and  _218
REMARK   93  A    between atoms: _218  and  _219
REMARK   94  A    between atoms: _218  and  _221
REMARK   95  A    between atoms: _221  and  _222
REMARK   96  A    between atoms: _225  and  _227
REMARK   97  A    between atoms: _227  and  _228
REMARK   98  A    between atoms: _227  and  _230
REMARK   99  A    between atoms: _230  and  _231
REMARK  100  A    between atoms: _234  and  _236
REMARK  101  A    between atoms: _236  and  _237
REMARK  102  A    between atoms: _236  and  _239
REMARK  103  A    between atoms: _239  and  _240
REMARK  104  A    between atoms: _243  and  _245
REMARK  105  A    between atoms: _245  and  _246
REMARK  106  A    between atoms: _245  and  _248
REMARK  107  A    between atoms: _248  and  _249
REMARK  108  A    between atoms: _249  and  _250
REMARK  109  A    between atoms: _252  and  _254
REMARK  110  A    between atoms: _254  and  _255
REMARK  111  A    between atoms: _254  and  _257
REMARK  112  A    between atoms: _257  and  _258
REMARK  113  A    between atoms: _264  and  _266
REMARK  114  A    between atoms: _266  and  _267
REMARK  115  A    between atoms: _266  and  _269
REMARK  116  A    between atoms: _271  and  _273
REMARK  117  A    between atoms: _273  and  _274
REMARK  118  A    between atoms: _277  and  _279
REMARK  119  A    between atoms: _279  and  _280
REMARK  120  A    between atoms: _282  and  _284
REMARK  121  A    between atoms: _284  and  _285
REMARK  122  A    between atoms: _284  and  _287
REMARK  123  A    between atoms: _287  and  _288
REMARK  124  A    between atoms: _288  and  _289
REMARK  125  A    between atoms: _292  and  _294
REMARK  126  A    between atoms: _294  and  _295
REMARK  127  A    between atoms: _294  and  _297
REMARK  128  A    between atoms: _297  and  _298
REMARK  129  A    between atoms: _301  and  _303
REMARK  130  A    between atoms: _303  and  _304
REMARK  131  A    between atoms: _307  and  _309
REMARK  132  A    between atoms: _309  and  _310
REMARK  133  A    between atoms: _309  and  _312
REMARK  134  A    between atoms: _312  and  _313
REMARK  135  A    between atoms: _313  and  _436
REMARK  136  A    between atoms: _314  and  _316
REMARK  137  A    between atoms: _316  and  _317
REMARK  138  A    between atoms: _316  and  _319
REMARK  139  A    between atoms: _319  and  _320
REMARK  140  A    between atoms: _320  and  _321
REMARK  141  A    between atoms: _326  and  _328
REMARK  142  A    between atoms: _328  and  _329
REMARK  143  A    between atoms: _331  and  _333
REMARK  144  A    between atoms: _333  and  _334
REMARK  145  A    between atoms: _333  and  _336
REMARK  146  A    between atoms: _336  and  _337
REMARK  147  A    between atoms: _340  and  _342
REMARK  148  A    between atoms: _342  and  _343
REMARK  149  A    between atoms: _342  and  _345
REMARK  150  A    between atoms: _345  and  _346
REMARK  151  A    between atoms: _348  and  _350
REMARK  152  A    between atoms: _350  and  _351
REMARK  153  A    between atoms: _353  and  _355
REMARK  154  A    between atoms: _355  and  _356
REMARK  155  A    between atoms: _358  and  _360
REMARK  156  A    between atoms: _360  and  _361
REMARK  157  A    between atoms: _360  and  _363
REMARK  158  A    between atoms: _363  and  _364
REMARK  159  A    between atoms: _369  and  _371
REMARK  160  A    between atoms: _371  and  _372
REMARK  161  A    between atoms: _371  and  _374
REMARK  162  A    between atoms: _374  and  _375
REMARK  163  A    between atoms: _378  and  _380
REMARK  164  A    between atoms: _380  and  _381
REMARK  165  A    between atoms: _380  and  _383
REMARK  166  A    between atoms: _386  and  _388
REMARK  167  A    between atoms: _388  and  _389
REMARK  168  A    between atoms: _388  and  _391
REMARK  169  A    between atoms: _391  and  _392
REMARK  170  A    between atoms: _394  and  _396
REMARK  171  A    between atoms: _396  and  _397
REMARK  172  A    between atoms: _396  and  _399
REMARK  173  A    between atoms: _399  and  _400
REMARK  174  A    between atoms: _410  and  _412
REMARK  175  A    between atoms: _412  and  _413
REMARK  176  A    between atoms: _415  and  _417
REMARK  177  A    between atoms: _417  and  _418
REMARK  178  A    between atoms: _417  and  _420
REMARK  179  A    between atoms: _420  and  _421
REMARK  180  A    between atoms: _421  and  _422
REMARK  181  A    between atoms: _425  and  _427
REMARK  182  A    between atoms: _427  and  _428
REMARK  183  A    between atoms: _430  and  _432
REMARK  184  A    between atoms: _432  and  _433
REMARK  185  A    between atoms: _432  and  _435
REMARK  186  A    between atoms: _435  and  _436
REMARK  187  A    between atoms: _437  and  _439
REMARK  188  A    between atoms: _439  and  _440
REMARK  189  A    between atoms: _443  and  _445
REMARK  190  A    between atoms: _445  and  _446
REMARK  191  A    between atoms: _445  and  _448
REMARK  192  A    between atoms: _448  and  _449
REMARK  193  A    between atoms: _449  and  _450
REMARK  194  A    between atoms: _450  and  _451
REMARK  195  A    between atoms: _460  and  _462
REMARK  196  A    between atoms: _462  and  _463
REMARK  197  A    between atoms: _462  and  _465
REMARK  198  A    between atoms: _465  and  _466
REMARK  199  A    between atoms: _466  and  _467
REMARK  200  A    between atoms: _467  and  _468
REMARK  201  A    between atoms: _468  and  _469
REMARK  202  A    between atoms: _473  and  _475
REMARK  203  A    between atoms: _475  and  _476
REMARK  204  A    between atoms: _475  and  _478
REMARK  205  A    between atoms: _478  and  _479
REMARK  206  A    between atoms: _484  and  _485
REMARK  207  A    between atoms: _487  and  _489
REMARK  208  A    between atoms: _489  and  _490
REMARK  209  A    between atoms: _492  and  _494
REMARK  210  A    between atoms: _494  and  _495
REMARK  211  A    between atoms: _494  and  _497
REMARK  212  A    between atoms: _497  and  _498
REMARK  213  A    between atoms: _501  and  _503
REMARK  214  A    between atoms: _503  and  _504
REMARK  215  A    between atoms: _503  and  _506
REMARK  216  A    between atoms: _506  and  _507
REMARK  217  A    between atoms: _512  and  _513
REMARK  218  A    between atoms: _515  and  _517
REMARK  219  A    between atoms: _517  and  _518
REMARK  220  A    between atoms: _517  and  _520
REMARK  221  A    between atoms: _520  and  _521
REMARK                            x       y       z     vdW  Elec       q    Type
REMARK                         _______ _______ _______ _____ _____    ______ ____
ROOT
ATOM      1  CB  GLN A   1      12.784  64.417  -7.510  0.00  0.00    +0.035 C 
ENDROOT
BRANCH   1   2
ATOM      2  CA  GLN A   1      12.543  64.167  -9.010  0.00  0.00    +0.134 C 
BRANCH   2   3
ATOM      3  N   GLN A   1      12.765  62.764  -9.296  0.00  0.00    -0.239 NA
ATOM      4  H   GLN A   1      13.647  62.306  -8.989  0.00  0.00    +0.142 HD
ENDBRANCH   2   3
BRANCH   2   5
ATOM      5  C   GLN A   1      13.301  65.153  -9.917  0.00  0.00    +0.224 C 
ATOM      6  O   GLN A   1      13.395  66.341  -9.616  0.00  0.00    -0.287 OA
ENDBRANCH   2   5
ENDBRANCH   1   2
BRANCH   1   7
ATOM      7  CG  GLN A   1      11.725  63.706  -6.649  0.00  0.00    +0.087 C 
BRANCH   7   8
ATOM      8  CD  GLN A   1      11.920  63.882  -5.150  0.00  0.00    +0.219 C 
ATOM      9  OE1 GLN A   1      10.974  63.720  -4.362  0.00  0.00    -0.275 OA
ATOM     10  NE2 GLN A   1      13.138  64.185  -4.746  0.00  0.00    -0.329 N 
ATOM     11 HE21 GLN A   1      13.336  64.298  -3.731  0.00  0.00    +0.145 HD
ATOM     12 HE22 GLN A   1      13.900  64.311  -5.442  0.00  0.00    +0.145 HD
ENDBRANCH   7   8
ENDBRANCH   1   7
TORSDOF 5
REMARK  Name = ../refined-set-2016/2vwo/2vwo_pocket.pdb
REMARK  221 active torsions:
REMARK  status: ('A' for Active; 'I' for Inactive)
REMARK    1  A    between atoms: _1  and  _5
REMARK    2  A    between atoms: _5  and  _6
REMARK    3  A    between atoms: _5  and  _8
REMARK    4  A    between atoms: _8  and  _9
REMARK    5  A    between atoms: _12  and  _14
REMARK    6  A    between atoms: _14  and  _15
REMARK    7  A    between atoms: _14  and  _17
REMARK    8  A    between atoms: _20  and  _22
REMARK    9  A    between atoms: _22  and  _23
REMARK   10  A    between atoms: _22  and  _25
REMARK   11  A    between atoms: _25  and  _26
REMARK   12  A    between atoms: _31  and  _33
REMARK   13  A    between atoms: _33  and  _34
REMARK   14  A    between atoms: _33  and  _36
REMARK   15  A    between atoms: _36  and  _37
REMARK   16  A    between atoms: _37  and  _38
REMARK   17  A    between atoms: _43  and  _45
REMARK   18  A    between atoms: _45  and  _46
REMARK   19  A    between atoms: _45  and  _48
REMARK   20  A    between atoms: _48  and  _49
REMARK   21  A    between atoms: _52  and  _54
REMARK   22  A    between atoms: _54  and  _55
REMARK   23  A    between atoms: _54  and  _57
REMARK   24  A    between atoms: _57  and  _58
REMARK   25  A    between atoms: _58  and  _59
REMARK   26  A    between atoms: _59  and  _60
REMARK   27  A    between atoms: _60  and  _61
REMARK   28  A    between atoms: _65  and  _67
REMARK   29  A    between atoms: _67  and  _68
REMARK   30  A    between atoms: _67  and  _70
REMARK   31  A    between atoms: _70  and  _71
REMARK   32  A    between atoms: _71  and  _72
REMARK   33  A    between atoms: _75  and  _77
REMARK   34  A    between atoms: _77  and  _78
REMARK   35  A    between atoms: _77  and  _80
REMARK   36  A    between atoms: _80  and  _81
REMARK   37  A    between atoms: _84  and  _86
REMARK   38  A    between atoms: _86  and  _87
REMARK   39  A    between atoms: _86  and  _89
REMARK   40  A    between atoms: _89  and  _90
REMARK   41  A    between atoms: _95  and  _96
REMARK   42  A    between atoms: _98  and  _100
REMARK   43  A    between atoms: _100  and  _101
REMARK   44  A    between atoms: _100  and  _103
REMARK   45  A    between atoms: _103  and  _104
REMARK   46  A    between atoms: _107  and  _109
REMARK   47  A    between atoms: _109  and  _110
REMARK   48  A    between atoms: _109  and  _112
REMARK   49  A    between atoms: _112  and  _113
REMARK   50  A    between atoms: _116  and  _118
REMARK   51  A    between atoms: _118  and  _119
REMARK   52  A    between atoms: _118  and  _121
REMARK   53  A    between atoms: _124  and  _126
REMARK   54  A    between atoms: _126  and  _127
REMARK   55  A    between atoms: _126  and  _129
REMARK   56  A    between atoms: _129  and  _130
REMARK   57  A    between atoms: _130  and  _131
REMARK   58  A    between atoms: _131  and  _132
REMARK   59  A    between atoms: _141  and  _143
REMARK   60  A    between atoms: _143  and  _144
REMARK   61  A    between atoms: _143  and  _146
REMARK   62  A    between atoms: _146  and  _147
REMARK   63  A    between atoms: _152  and  _154
REMARK   64  A    between atoms: _154  and  _155
REMARK   65  A    between atoms: _154  and  _157
REMARK   66  A    between atoms: _157  and  _158
REMARK   67  A    between atoms: _158  and  _159
REMARK   68  A    between atoms: _162  and  _164
REMARK   69  A    between atoms: _164  and  _165
REMARK   70  A    between atoms: _164  and  _167
REMARK   71  A    between atoms: _167  and  _168
REMARK   72  A    between atoms: _168  and  _169
REMARK   73  A    between atoms: _169  and  _170
REMARK   74  A    between atoms: _170  and  _171
REMARK   75  A    between atoms: _175  and  _177
REMARK   76  A    between atoms: _177  and  _178
REMARK   77  A    between atoms: _180  and  _182
REMARK   78  A    between atoms: _182  and  _183
REMARK   79  A    between atoms: _182  and  _185
REMARK   80  A    between atoms: _188  and  _190
REMARK   81  A    between atoms: _190  and  _191
REMARK   82  A    between atoms: _190  and  _193
REMARK   83  A    between atoms: _193  and  _194
REMARK   84  A    between atoms: _196  and  _198
REMARK   85  A    between atoms: _198  and  _199
REMARK   86  A    between atoms: _198  and  _201
REMARK   87  A    between atoms: _201  and  _202
REMARK   88  A    between atoms: _204  and  _206
REMARK   89  A    between atoms: _206  and  _207
REMARK   90  A    between atoms: _206  and  _209
REMARK   91  A    between atoms: _209  and  _210
REMARK   92  A    between atoms: _216  and  _218
REMARK   93  A    between atoms: _218  and  _219
REMARK   94  A    between atoms: _218  and  _221
REMARK   95  A    between atoms: _221  and  _222
REMARK   96  A    between atoms: _225  and  _227
REMARK   97  A    between atoms: _227  and  _228
REMARK   98  A    between atoms: _227  and  _230
REMARK   99  A    between atoms: _230  and  _231
REMARK  100  A    between atoms: _234  and  _236
REMARK  101  A    between atoms: _236  and  _237
REMARK  102  A    between atoms: _236  and  _239
REMARK  103  A    between atoms: _239  and  _240
REMARK  104  A    between atoms: _243  and  _245
REMARK  105  A    between atoms: _245  and  _246
REMARK  106  A    between atoms: _245  and  _248
REMARK  107  A    between atoms: _248  and  _249
REMARK  108  A    between atoms: _249  and  _250
REMARK  109  A    between atoms: _252  and  _254
REMARK  110  A    between atoms: _254  and  _255
REMARK  111  A    between atoms: _254  and  _257
REMARK  112  A    between atoms: _257  and  _258
REMARK  113  A    between atoms: _264  and  _266
REMARK  114  A    between atoms: _266  and  _267
REMARK  115  A    between atoms: _266  and  _269
REMARK  116  A    between atoms: _271  and  _273
REMARK  117  A    between atoms: _273  and  _274
REMARK  118  A    between atoms: _277  and  _279
REMARK  119  A    between atoms: _279  and  _280
REMARK  120  A    between atoms: _282  and  _284
REMARK  121  A    between atoms: _284  and  _285
REMARK  122  A    between atoms: _284  and  _287
REMARK  123  A    between atoms: _287  and  _288
REMARK  124  A    between atoms: _288  and  _289
REMARK  125  A    between atoms: _292  and  _294
REMARK  126  A    between atoms: _294  and  _295
REMARK  127  A    between atoms: _294  and  _297
REMARK  128  A    between atoms: _297  and  _298
REMARK  129  A    between atoms: _301  and  _303
REMARK  130  A    between atoms: _303  and  _304
REMARK  131  A    between atoms: _307  and  _309
REMARK  132  A    between atoms: _309  and  _310
REMARK  133  A    between atoms: _309  and  _312
REMARK  134  A    between atoms: _312  and  _313
REMARK  135  A    between atoms: _313  and  _436
REMARK  136  A    between atoms: _314  and  _316
REMARK  137  A    between atoms: _316  and  _317
REMARK  138  A    between atoms: _316  and  _319
REMARK  139  A    between atoms: _319  and  _320
REMARK  140  A    between atoms: _320  and  _321
REMARK  141  A    between atoms: _326  and  _328
REMARK  142  A    between atoms: _328  and  _329
REMARK  143  A    between atoms: _331  and  _333
REMARK  144  A    between atoms: _333  and  _334
REMARK  145  A    between atoms: _333  and  _336
REMARK  146  A    between atoms: _336  and  _337
REMARK  147  A    between atoms: _340  and  _342
REMARK  148  A    between atoms: _342  and  _343
REMARK  149  A    between atoms: _342  and  _345
REMARK  150  A    between atoms: _345  and  _346
REMARK  151  A    between atoms: _348  and  _350
REMARK  152  A    between atoms: _350  and  _351
REMARK  153  A    between atoms: _353  and  _355
REMARK  154  A    between atoms: _355  and  _356
REMARK  155  A    between atoms: _358  and  _360
REMARK  156  A    between atoms: _360  and  _361
REMARK  157  A    between atoms: _360  and  _363
REMARK  158  A    between atoms: _363  and  _364
REMARK  159  A    between atoms: _369  and  _371
REMARK  160  A    between atoms: _371  and  _372
REMARK  161  A    between atoms: _371  and  _374
REMARK  162  A    between atoms: _374  and  _375
REMARK  163  A    between atoms: _378  and  _380
REMARK  164  A    between atoms: _380  and  _381
REMARK  165  A    between atoms: _380  and  _383
REMARK  166  A    between atoms: _386  and  _388
REMARK  167  A    between atoms: _388  and  _389
REMARK  168  A    between atoms: _388  and  _391
REMARK  169  A    between atoms: _391  and  _392
REMARK  170  A    between atoms: _394  and  _396
REMARK  171  A    between atoms: _396  and  _397
REMARK  172  A    between atoms: _396  and  _399
REMARK  173  A    between atoms: _399  and  _400
REMARK  174  A    between atoms: _410  and  _412
REMARK  175  A    between atoms: _412  and  _413
REMARK  176  A    between atoms: _415  and  _417
REMARK  177  A    between atoms: _417  and  _418
REMARK  178  A    between atoms: _417  and  _420
REMARK  179  A    between atoms: _420  and  _421
REMARK  180  A    between atoms: _421  and  _422
REMARK  181  A    between atoms: _425  and  _427
REMARK  182  A    between atoms: _427  and  _428
REMARK  183  A    between atoms: _430  and  _432
REMARK  184  A    between atoms: _432  and  _433
REMARK  185  A    between atoms: _432  and  _435
REMARK  186  A    between atoms: _435  and  _436
REMARK  187  A    between atoms: _437  and  _439
REMARK  188  A    between atoms: _439  and  _440
REMARK  189  A    between atoms: _443  and  _445
REMARK  190  A    between atoms: _445  and  _446
REMARK  191  A    between atoms: _445  and  _448
REMARK  192  A    between atoms: _448  and  _449
REMARK  193  A    between atoms: _449  and  _450
REMARK  194  A    between atoms: _450  and  _451
REMARK  195  A    between atoms: _460  and  _462
REMARK  196  A    between atoms: _462  and  _463
REMARK  197  A    between atoms: _462  and  _465
REMARK  198  A    between atoms: _465  and  _466
REMARK  199  A    between atoms: _466  and  _467
REMARK  200  A    between atoms: _467  and  _468
REMARK  201  A    between atoms: _468  and  _469
REMARK  202  A    between atoms: _473  and  _475
REMARK  203  A    between atoms: _475  and  _476
REMARK  204  A    between atoms: _475  and  _478
REMARK  205  A    between atoms: _478  and  _479
REMARK  206  A    between atoms: _484  and  _485
REMARK  207  A    between atoms: _487  and  _489
REMARK  208  A    between atoms: _489  and  _490
REMARK  209  A    between atoms: _492  and  _494
REMARK  210  A    between atoms: _494  and  _495
REMARK  211  A    between atoms: _494  and  _497
REMARK  212  A    between atoms: _497  and  _498
REMARK  213  A    between atoms: _501  and  _503
REMARK  214  A    between atoms: _503  and  _504
REMARK  215  A    between atoms: _503  and  _506
REMARK  216  A    between atoms: _506  and  _507
REMARK  217  A    between atoms: _512  and  _513
REMARK  218  A    between atoms: _515  and  _517
REMARK  219  A    between atoms: _517  and  _518
REMARK  220  A    between atoms: _517  and  _520
REMARK  221  A    between atoms: _520  and  _521
REMARK                            x       y       z     vdW  Elec       q    Type
REMARK                         _______ _______ _______ _____ _____    ______ ____
ROOT
ATOM      1  C   GLU A   3       4.475  53.458  -0.021  0.00  0.00    +0.241 C 
ATOM      2  O   GLU A   3       3.828  53.795   0.974  0.00  0.00    -0.273 OA
ATOM      3  N   THR A   4       5.685  52.910   0.064  0.00  0.00    -0.295 N 
ATOM      4  H   THR A   4       6.215  52.722  -0.811  0.00  0.00    +0.150 HD
ENDROOT
BRANCH   3   5
ATOM      5  CA  THR A   4       6.289  52.566   1.336  0.00  0.00    +0.176 C 
BRANCH   5   6
ATOM      6  C   THR A   4       7.593  53.309   1.606  0.00  0.00    +0.243 C 
ATOM      7  O   THR A   4       8.060  53.313   2.729  0.00  0.00    -0.273 OA
ATOM      8  N   TYR A   5       8.191  53.890   0.568  0.00  0.00    -0.297 N 
ATOM      9  H   TYR A   5       7.669  53.992  -0.326  0.00  0.00    +0.150 HD
BRANCH   8  10
ATOM     10  CA  TYR A   5       9.578  54.393   0.654  0.00  0.00    +0.153 C 
BRANCH  10  11
ATOM     11  C   TYR A   5      10.610  53.332   1.067  0.00  0.00    +0.241 C 
ATOM     12  O   TYR A   5      11.742  53.659   1.436  0.00  0.00    -0.273 OA
ATOM     13  N   ASP A   6      10.216  52.069   1.010  0.00  0.00    -0.298 N 
ATOM     14  H   ASP A   6       9.243  51.846   0.719  0.00  0.00    +0.150 HD
BRANCH  13  15
ATOM     15  CA  ASP A   6      11.131  50.990   1.351  0.00  0.00    +0.148 C 
BRANCH  15  16
ATOM     16  C   ASP A   6      12.116  50.770   0.193  0.00  0.00    +0.227 C 
ATOM     17  O   ASP A   6      11.840  51.103  -0.952  0.00  0.00    -0.286 OA
ENDBRANCH  15  16
BRANCH  15  18
ATOM     18  CB  ASP A   6      10.308  49.717   1.643  0.00  0.00    +0.142 C 
BRANCH  18  19
ATOM     19  CG  ASP A   6      11.047  48.702   2.493  0.00  0.00    +0.367 C 
ATOM     20  OD2 ASP A   6      12.153  48.991   2.960  0.00  0.00    -0.246 OA
ATOM     21  OD1 ASP A   6      10.480  47.604   2.677  0.00  0.00    -0.246 OA
ENDBRANCH  18  19
ENDBRANCH  15  18
ENDBRANCH  13  15
ENDBRANCH  10  11
BRANCH  10  22
ATOM     22  CB  TYR A   5       9.674  55.666   1.541  0.00  0.00    +0.055 C 
BRANCH  22  23
ATOM     23  CG  TYR A   5       9.513  56.937   0.729  0.00  0.00    -0.020 A 
ATOM     24  CD2 TYR A   5      10.581  57.803   0.579  0.00  0.00    -0.001 A 
ATOM     25  CE2 TYR A   5      10.474  58.945  -0.163  0.00  0.00    +0.036 A 
ATOM     26  CZ  TYR A   5       9.287  59.236  -0.769  0.00  0.00    +0.134 A 
ATOM     27  CE1 TYR A   5       8.207  58.400  -0.652  0.00  0.00    +0.036 A 
ATOM     28  CD1 TYR A   5       8.316  57.244   0.100  0.00  0.00    -0.001 A 
BRANCH  26  29
ATOM     29  OH  TYR A   5       9.203  60.403  -1.513  0.00  0.00    -0.506 OA
ATOM     30  HH  TYR A   5       9.391  61.180  -0.929  0.00  0.00    +0.292 HD
ENDBRANCH  26  29
ENDBRANCH  22  23
ENDBRANCH  10  22
ENDBRANCH   8  10
ENDBRANCH   5   6
BRANCH   5  31
ATOM     31  CB  THR A   4       6.713  51.097   1.375  0.00  0.00    +0.137 C 
ATOM     32  CG2 THR A   4       5.458  50.151   1.339  0.00  0.00    +0.034 C 
BRANCH  31  33
ATOM     33  OG1 THR A   4       7.595  50.828   0.283  0.00  0.00    -0.382 OA
ATOM     34  HG1 THR A   4       7.869  49.877   0.308  0.00  0.00    +0.210 HD
ENDBRANCH  31  33
ENDBRANCH   5  31
ENDBRANCH   3   5
BRANCH   1  35
ATOM     35  CA  GLU A   3       3.918  53.680  -1.436  0.00  0.00    +0.149 C 
BRANCH  35  38
ATOM     36  C   LYS A   2       5.633  55.240  -2.126  0.00  0.00    +0.241 C 
ATOM     37  O   LYS A   2       5.378  55.983  -1.168  0.00  0.00    -0.273 OA
ATOM     38  N   GLU A   3       4.950  54.121  -2.372  0.00  0.00    -0.297 N 
ATOM     39  H   GLU A   3       5.151  53.564  -3.227  0.00  0.00    +0.150 HD
BRANCH  36  40
ATOM     40  CA  LYS A   2       6.763  55.592  -3.073  0.00  0.00    +0.149 C 
BRANCH  40  43
ATOM     41  C   THR A   1       7.792  53.412  -3.370  0.00  0.00    +0.241 C 
ATOM     42  O   THR A   1       8.097  53.356  -2.171  0.00  0.00    -0.274 OA
ATOM     43  N   LYS A   2       7.176  54.463  -3.904  0.00  0.00    -0.297 N 
ATOM     44  H   LYS A   2       6.986  54.482  -4.926  0.00  0.00    +0.150 HD
BRANCH  41  45
ATOM     45  CA  THR A   1       8.106  52.245  -4.301  0.00  0.00    +0.172 C 
BRANCH  45  46
ATOM     46  N   THR A   1       9.374  51.638  -3.895  0.00  0.00    -0.236 NA
ATOM     47  H   THR A   1       9.652  51.657  -2.893  0.00  0.00    +0.142 HD
ENDBRANCH  45  46
BRANCH  45  48
ATOM     48  CB  THR A   1       6.942  51.242  -4.260  0.00  0.00    +0.135 C 
ATOM     49  CG2 THR A   1       6.905  50.533  -2.929  0.00  0.00    +0.034 C 
BRANCH  48  50
ATOM     50  OG1 THR A   1       5.718  51.972  -4.382  0.00  0.00    -0.383 OA
ATOM     51  HG1 THR A   1       4.955  51.341  -4.358  0.00  0.00    +0.210 HD
ENDBRANCH  48  50
ENDBRANCH  45  48
ENDBRANCH  41  45
ENDBRANCH  40  43
BRANCH  40  52
ATOM     52  CB  LYS A   2       6.345  56.796  -3.931  0.00  0.00    +0.029 C 
BRANCH  52  53
ATOM     53  CG  LYS A   2       7.497  57.603  -4.516  0.00  0.00    +0.000 C 
BRANCH  53  54
ATOM     54  CD  LYS A   2       6.956  58.742  -5.417  0.00  0.00    -0.024 C 
BRANCH  54  55
ATOM     55  CE  LYS A   2       8.085  59.488  -6.106  0.00  0.00    -0.086 C 
BRANCH  55  56
ATOM     56  NZ  LYS A   2       7.570  60.588  -6.971  0.00  0.00    +0.380 N 
ATOM     57  HZ1 LYS A   2       7.037  61.265  -6.389  0.00  0.00    -0.089 HD
ATOM     58  HZ2 LYS A   2       8.370  61.074  -7.424  0.00  0.00    -0.089 HD
ATOM     59  HZ3 LYS A   2       6.946  60.190  -7.701  0.00  0.00    -0.089 HD
ENDBRANCH  55  56
ENDBRANCH  54  55
ENDBRANCH  53  54
ENDBRANCH  52  53
ENDBRANCH  40  52
ENDBRANCH  36  40
ENDBRANCH  35  38
BRANCH  35  60
ATOM     60  CB  GLU A   3       3.246  52.397  -1.940  0.00  0.00    +0.041 C 
BRANCH  60  61
ATOM     61  CG  GLU A   3       2.213  51.820  -1.021  0.00  0.00    +0.116 C 
BRANCH  61  62
ATOM     62  CD  GLU A   3       1.745  50.478  -1.517  0.00  0.00    +0.365 C 
ATOM     63  OE2 GLU A   3       1.764  49.509  -0.732  0.00  0.00    -0.246 OA
ATOM     64  OE1 GLU A   3       1.372  50.397  -2.707  0.00  0.00    -0.246 OA
ENDBRANCH  61  62
ENDBRANCH  60  61
ENDBRANCH  35  60
ENDBRANCH   1  35
TORSDOF 29
REMARK  Name = ../refined-set-2016/2vwo/2vwo_pocket.pdb
REMARK  221 active torsions:
REMARK  status: ('A' for Active; 'I' for Inactive)
REMARK    1  A    between atoms: _1  and  _5
REMARK    2  A    between atoms: _5  and  _6
REMARK    3  A    between atoms: _5  and  _8
REMARK    4  A    between atoms: _8  and  _9
REMARK    5  A    between atoms: _12  and  _14
REMARK    6  A    between atoms: _14  and  _15
REMARK    7  A    between atoms: _14  and  _17
REMARK    8  A    between atoms: _20  and  _22
REMARK    9  A    between atoms: _22  and  _23
REMARK   10  A    between atoms: _22  and  _25
REMARK   11  A    between atoms: _25  and  _26
REMARK   12  A    between atoms: _31  and  _33
REMARK   13  A    between atoms: _33  and  _34
REMARK   14  A    between atoms: _33  and  _36
REMARK   15  A    between atoms: _36  and  _37
REMARK   16  A    between atoms: _37  and  _38
REMARK   17  A    between atoms: _43  and  _45
REMARK   18  A    between atoms: _45  and  _46
REMARK   19  A    between atoms: _45  and  _48
REMARK   20  A    between atoms: _48  and  _49
REMARK   21  A    between atoms: _52  and  _54
REMARK   22  A    between atoms: _54  and  _55
REMARK   23  A    between atoms: _54  and  _57
REMARK   24  A    between atoms: _57  and  _58
REMARK   25  A    between atoms: _58  and  _59
REMARK   26  A    between atoms: _59  and  _60
REMARK   27  A    between atoms: _60  and  _61
REMARK   28  A    between atoms: _65  and  _67
REMARK   29  A    between atoms: _67  and  _68
REMARK   30  A    between atoms: _67  and  _70
REMARK   31  A    between atoms: _70  and  _71
REMARK   32  A    between atoms: _71  and  _72
REMARK   33  A    between atoms: _75  and  _77
REMARK   34  A    between atoms: _77  and  _78
REMARK   35  A    between atoms: _77  and  _80
REMARK   36  A    between atoms: _80  and  _81
REMARK   37  A    between atoms: _84  and  _86
REMARK   38  A    between atoms: _86  and  _87
REMARK   39  A    between atoms: _86  and  _89
REMARK   40  A    between atoms: _89  and  _90
REMARK   41  A    between atoms: _95  and  _96
REMARK   42  A    between atoms: _98  and  _100
REMARK   43  A    between atoms: _100  and  _101
REMARK   44  A    between atoms: _100  and  _103
REMARK   45  A    between atoms: _103  and  _104
REMARK   46  A    between atoms: _107  and  _109
REMARK   47  A    between atoms: _109  and  _110
REMARK   48  A    between atoms: _109  and  _112
REMARK   49  A    between atoms: _112  and  _113
REMARK   50  A    between atoms: _116  and  _118
REMARK   51  A    between atoms: _118  and  _119
REMARK   52  A    between atoms: _118  and  _121
REMARK   53  A    between atoms: _124  and  _126
REMARK   54  A    between atoms: _126  and  _127
REMARK   55  A    between atoms: _126  and  _129
REMARK   56  A    between atoms: _129  and  _130
REMARK   57  A    between atoms: _130  and  _131
REMARK   58  A    between atoms: _131  and  _132
REMARK   59  A    between atoms: _141  and  _143
REMARK   60  A    between atoms: _143  and  _144
REMARK   61  A    between atoms: _143  and  _146
REMARK   62  A    between atoms: _146  and  _147
REMARK   63  A    between atoms: _152  and  _154
REMARK   64  A    between atoms: _154  and  _155
REMARK   65  A    between atoms: _154  and  _157
REMARK   66  A    between atoms: _157  and  _158
REMARK   67  A    between atoms: _158  and  _159
REMARK   68  A    between atoms: _162  and  _164
REMARK   69  A    between atoms: _164  and  _165
REMARK   70  A    between atoms: _164  and  _167
REMARK   71  A    between atoms: _167  and  _168
REMARK   72  A    between atoms: _168  and  _169
REMARK   73  A    between atoms: _169  and  _170
REMARK   74  A    between atoms: _170  and  _171
REMARK   75  A    between atoms: _175  and  _177
REMARK   76  A    between atoms: _177  and  _178
REMARK   77  A    between atoms: _180  and  _182
REMARK   78  A    between atoms: _182  and  _183
REMARK   79  A    between atoms: _182  and  _185
REMARK   80  A    between atoms: _188  and  _190
REMARK   81  A    between atoms: _190  and  _191
REMARK   82  A    between atoms: _190  and  _193
REMARK   83  A    between atoms: _193  and  _194
REMARK   84  A    between atoms: _196  and  _198
REMARK   85  A    between atoms: _198  and  _199
REMARK   86  A    between atoms: _198  and  _201
REMARK   87  A    between atoms: _201  and  _202
REMARK   88  A    between atoms: _204  and  _206
REMARK   89  A    between atoms: _206  and  _207
REMARK   90  A    between atoms: _206  and  _209
REMARK   91  A    between atoms: _209  and  _210
REMARK   92  A    between atoms: _216  and  _218
REMARK   93  A    between atoms: _218  and  _219
REMARK   94  A    between atoms: _218  and  _221
REMARK   95  A    between atoms: _221  and  _222
REMARK   96  A    between atoms: _225  and  _227
REMARK   97  A    between atoms: _227  and  _228
REMARK   98  A    between atoms: _227  and  _230
REMARK   99  A    between atoms: _230  and  _231
REMARK  100  A    between atoms: _234  and  _236
REMARK  101  A    between atoms: _236  and  _237
REMARK  102  A    between atoms: _236  and  _239
REMARK  103  A    between atoms: _239  and  _240
REMARK  104  A    between atoms: _243  and  _245
REMARK  105  A    between atoms: _245  and  _246
REMARK  106  A    between atoms: _245  and  _248
REMARK  107  A    between atoms: _248  and  _249
REMARK  108  A    between atoms: _249  and  _250
REMARK  109  A    between atoms: _252  and  _254
REMARK  110  A    between atoms: _254  and  _255
REMARK  111  A    between atoms: _254  and  _257
REMARK  112  A    between atoms: _257  and  _258
REMARK  113  A    between atoms: _264  and  _266
REMARK  114  A    between atoms: _266  and  _267
REMARK  115  A    between atoms: _266  and  _269
REMARK  116  A    between atoms: _271  and  _273
REMARK  117  A    between atoms: _273  and  _274
REMARK  118  A    between atoms: _277  and  _279
REMARK  119  A    between atoms: _279  and  _280
REMARK  120  A    between atoms: _282  and  _284
REMARK  121  A    between atoms: _284  and  _285
REMARK  122  A    between atoms: _284  and  _287
REMARK  123  A    between atoms: _287  and  _288
REMARK  124  A    between atoms: _288  and  _289
REMARK  125  A    between atoms: _292  and  _294
REMARK  126  A    between atoms: _294  and  _295
REMARK  127  A    between atoms: _294  and  _297
REMARK  128  A    between atoms: _297  and  _298
REMARK  129  A    between atoms: _301  and  _303
REMARK  130  A    between atoms: _303  and  _304
REMARK  131  A    between atoms: _307  and  _309
REMARK  132  A    between atoms: _309  and  _310
REMARK  133  A    between atoms: _309  and  _312
REMARK  134  A    between atoms: _312  and  _313
REMARK  135  A    between atoms: _313  and  _436
REMARK  136  A    between atoms: _314  and  _316
REMARK  137  A    between atoms: _316  and  _317
REMARK  138  A    between atoms: _316  and  _319
REMARK  139  A    between atoms: _319  and  _320
REMARK  140  A    between atoms: _320  and  _321
REMARK  141  A    between atoms: _326  and  _328
REMARK  142  A    between atoms: _328  and  _329
REMARK  143  A    between atoms: _331  and  _333
REMARK  144  A    between atoms: _333  and  _334
REMARK  145  A    between atoms: _333  and  _336
REMARK  146  A    between atoms: _336  and  _337
REMARK  147  A    between atoms: _340  and  _342
REMARK  148  A    between atoms: _342  and  _343
REMARK  149  A    between atoms: _342  and  _345
REMARK  150  A    between atoms: _345  and  _346
REMARK  151  A    between atoms: _348  and  _350
REMARK  152  A    between atoms: _350  and  _351
REMARK  153  A    between atoms: _353  and  _355
REMARK  154  A    between atoms: _355  and  _356
REMARK  155  A    between atoms: _358  and  _360
REMARK  156  A    between atoms: _360  and  _361
REMARK  157  A    between atoms: _360  and  _363
REMARK  158  A    between atoms: _363  and  _364
REMARK  159  A    between atoms: _369  and  _371
REMARK  160  A    between atoms: _371  and  _372
REMARK  161  A    between atoms: _371  and  _374
REMARK  162  A    between atoms: _374  and  _375
REMARK  163  A    between atoms: _378  and  _380
REMARK  164  A    between atoms: _380  and  _381
REMARK  165  A    between atoms: _380  and  _383
REMARK  166  A    between atoms: _386  and  _388
REMARK  167  A    between atoms: _388  and  _389
REMARK  168  A    between atoms: _388  and  _391
REMARK  169  A    between atoms: _391  and  _392
REMARK  170  A    between atoms: _394  and  _396
REMARK  171  A    between atoms: _396  and  _397
REMARK  172  A    between atoms: _396  and  _399
REMARK  173  A    between atoms: _399  and  _400
REMARK  174  A    between atoms: _410  and  _412
REMARK  175  A    between atoms: _412  and  _413
REMARK  176  A    between atoms: _415  and  _417
REMARK  177  A    between atoms: _417  and  _418
REMARK  178  A    between atoms: _417  and  _420
REMARK  179  A    between atoms: _420  and  _421
REMARK  180  A    between atoms: _421  and  _422
REMARK  181  A    between atoms: _425  and  _427
REMARK  182  A    between atoms: _427  and  _428
REMARK  183  A    between atoms: _430  and  _432
REMARK  184  A    between atoms: _432  and  _433
REMARK  185  A    between atoms: _432  and  _435
REMARK  186  A    between atoms: _435  and  _436
REMARK  187  A    between atoms: _437  and  _439
REMARK  188  A    between atoms: _439  and  _440
REMARK  189  A    between atoms: _443  and  _445
REMARK  190  A    between atoms: _445  and  _446
REMARK  191  A    between atoms: _445  and  _448
REMARK  192  A    between atoms: _448  and  _449
REMARK  193  A    between atoms: _449  and  _450
REMARK  194  A    between atoms: _450  and  _451
REMARK  195  A    between atoms: _460  and  _462
REMARK  196  A    between atoms: _462  and  _463
REMARK  197  A    between atoms: _462  and  _465
REMARK  198  A    between atoms: _465  and  _466
REMARK  199  A    between atoms: _466  and  _467
REMARK  200  A    between atoms: _467  and  _468
REMARK  201  A    between atoms: _468  and  _469
REMARK  202  A    between atoms: _473  and  _475
REMARK  203  A    between atoms: _475  and  _476
REMARK  204  A    between atoms: _475  and  _478
REMARK  205  A    between atoms: _478  and  _479
REMARK  206  A    between atoms: _484  and  _485
REMARK  207  A    between atoms: _487  and  _489
REMARK  208  A    between atoms: _489  and  _490
REMARK  209  A    between atoms: _492  and  _494
REMARK  210  A    between atoms: _494  and  _495
REMARK  211  A    between atoms: _494  and  _497
REMARK  212  A    between atoms: _497  and  _498
REMARK  213  A    between atoms: _501  and  _503
REMARK  214  A    between atoms: _503  and  _504
REMARK  215  A    between atoms: _503  and  _506
REMARK  216  A    between atoms: _506  and  _507
REMARK  217  A    between atoms: _512  and  _513
REMARK  218  A    between atoms: _515  and  _517
REMARK  219  A    between atoms: _517  and  _518
REMARK  220  A    between atoms: _517  and  _520
REMARK  221  A    between atoms: _520  and  _521
REMARK                            x       y       z     vdW  Elec       q    Type
REMARK                         _______ _______ _______ _____ _____    ______ ____
ROOT
ATOM      1  CA  ASP A   1      15.221  53.598  -0.998  0.00  0.00    +0.144 C 
ENDROOT
BRANCH   1   2
ATOM      2  N   ASP A   1      14.933  52.266  -0.409  0.00  0.00    -0.239 NA
ATOM      3  H   ASP A   1      14.880  52.160   0.624  0.00  0.00    +0.142 HD
ENDBRANCH   1   2
BRANCH   1   4
ATOM      4  C   ASP A   1      16.716  53.780  -1.277  0.00  0.00    +0.225 C 
ATOM      5  O   ASP A   1      17.426  54.487  -0.553  0.00  0.00    -0.287 OA
ENDBRANCH   1   4
BRANCH   1   6
ATOM      6  CB  ASP A   1      14.686  54.715  -0.098  0.00  0.00    +0.139 C 
BRANCH   6   7
ATOM      7  CG  ASP A   1      14.611  56.054  -0.796  0.00  0.00    +0.367 C 
ATOM      8  OD2 ASP A   1      14.354  57.066  -0.101  0.00  0.00    -0.246 OA
ATOM      9  OD1 ASP A   1      14.811  56.080  -2.032  0.00  0.00    -0.246 OA
ENDBRANCH   6   7
ENDBRANCH   1   6
TORSDOF 4
REMARK  Name = ../refined-set-2016/2vwo/2vwo_pocket.pdb
REMARK  221 active torsions:
REMARK  status: ('A' for Active; 'I' for Inactive)
REMARK    1  A    between atoms: _1  and  _5
REMARK    2  A    between atoms: _5  and  _6
REMARK    3  A    between atoms: _5  and  _8
REMARK    4  A    between atoms: _8  and  _9
REMARK    5  A    between atoms: _12  and  _14
REMARK    6  A    between atoms: _14  and  _15
REMARK    7  A    between atoms: _14  and  _17
REMARK    8  A    between atoms: _20  and  _22
REMARK    9  A    between atoms: _22  and  _23
REMARK   10  A    between atoms: _22  and  _25
REMARK   11  A    between atoms: _25  and  _26
REMARK   12  A    between atoms: _31  and  _33
REMARK   13  A    between atoms: _33  and  _34
REMARK   14  A    between atoms: _33  and  _36
REMARK   15  A    between atoms: _36  and  _37
REMARK   16  A    between atoms: _37  and  _38
REMARK   17  A    between atoms: _43  and  _45
REMARK   18  A    between atoms: _45  and  _46
REMARK   19  A    between atoms: _45  and  _48
REMARK   20  A    between atoms: _48  and  _49
REMARK   21  A    between atoms: _52  and  _54
REMARK   22  A    between atoms: _54  and  _55
REMARK   23  A    between atoms: _54  and  _57
REMARK   24  A    between atoms: _57  and  _58
REMARK   25  A    between atoms: _58  and  _59
REMARK   26  A    between atoms: _59  and  _60
REMARK   27  A    between atoms: _60  and  _61
REMARK   28  A    between atoms: _65  and  _67
REMARK   29  A    between atoms: _67  and  _68
REMARK   30  A    between atoms: _67  and  _70
REMARK   31  A    between atoms: _70  and  _71
REMARK   32  A    between atoms: _71  and  _72
REMARK   33  A    between atoms: _75  and  _77
REMARK   34  A    between atoms: _77  and  _78
REMARK   35  A    between atoms: _77  and  _80
REMARK   36  A    between atoms: _80  and  _81
REMARK   37  A    between atoms: _84  and  _86
REMARK   38  A    between atoms: _86  and  _87
REMARK   39  A    between atoms: _86  and  _89
REMARK   40  A    between atoms: _89  and  _90
REMARK   41  A    between atoms: _95  and  _96
REMARK   42  A    between atoms: _98  and  _100
REMARK   43  A    between atoms: _100  and  _101
REMARK   44  A    between atoms: _100  and  _103
REMARK   45  A    between atoms: _103  and  _104
REMARK   46  A    between atoms: _107  and  _109
REMARK   47  A    between atoms: _109  and  _110
REMARK   48  A    between atoms: _109  and  _112
REMARK   49  A    between atoms: _112  and  _113
REMARK   50  A    between atoms: _116  and  _118
REMARK   51  A    between atoms: _118  and  _119
REMARK   52  A    between atoms: _118  and  _121
REMARK   53  A    between atoms: _124  and  _126
REMARK   54  A    between atoms: _126  and  _127
REMARK   55  A    between atoms: _126  and  _129
REMARK   56  A    between atoms: _129  and  _130
REMARK   57  A    between atoms: _130  and  _131
REMARK   58  A    between atoms: _131  and  _132
REMARK   59  A    between atoms: _141  and  _143
REMARK   60  A    between atoms: _143  and  _144
REMARK   61  A    between atoms: _143  and  _146
REMARK   62  A    between atoms: _146  and  _147
REMARK   63  A    between atoms: _152  and  _154
REMARK   64  A    between atoms: _154  and  _155
REMARK   65  A    between atoms: _154  and  _157
REMARK   66  A    between atoms: _157  and  _158
REMARK   67  A    between atoms: _158  and  _159
REMARK   68  A    between atoms: _162  and  _164
REMARK   69  A    between atoms: _164  and  _165
REMARK   70  A    between atoms: _164  and  _167
REMARK   71  A    between atoms: _167  and  _168
REMARK   72  A    between atoms: _168  and  _169
REMARK   73  A    between atoms: _169  and  _170
REMARK   74  A    between atoms: _170  and  _171
REMARK   75  A    between atoms: _175  and  _177
REMARK   76  A    between atoms: _177  and  _178
REMARK   77  A    between atoms: _180  and  _182
REMARK   78  A    between atoms: _182  and  _183
REMARK   79  A    between atoms: _182  and  _185
REMARK   80  A    between atoms: _188  and  _190
REMARK   81  A    between atoms: _190  and  _191
REMARK   82  A    between atoms: _190  and  _193
REMARK   83  A    between atoms: _193  and  _194
REMARK   84  A    between atoms: _196  and  _198
REMARK   85  A    between atoms: _198  and  _199
REMARK   86  A    between atoms: _198  and  _201
REMARK   87  A    between atoms: _201  and  _202
REMARK   88  A    between atoms: _204  and  _206
REMARK   89  A    between atoms: _206  and  _207
REMARK   90  A    between atoms: _206  and  _209
REMARK   91  A    between atoms: _209  and  _210
REMARK   92  A    between atoms: _216  and  _218
REMARK   93  A    between atoms: _218  and  _219
REMARK   94  A    between atoms: _218  and  _221
REMARK   95  A    between atoms: _221  and  _222
REMARK   96  A    between atoms: _225  and  _227
REMARK   97  A    between atoms: _227  and  _228
REMARK   98  A    between atoms: _227  and  _230
REMARK   99  A    between atoms: _230  and  _231
REMARK  100  A    between atoms: _234  and  _236
REMARK  101  A    between atoms: _236  and  _237
REMARK  102  A    between atoms: _236  and  _239
REMARK  103  A    between atoms: _239  and  _240
REMARK  104  A    between atoms: _243  and  _245
REMARK  105  A    between atoms: _245  and  _246
REMARK  106  A    between atoms: _245  and  _248
REMARK  107  A    between atoms: _248  and  _249
REMARK  108  A    between atoms: _249  and  _250
REMARK  109  A    between atoms: _252  and  _254
REMARK  110  A    between atoms: _254  and  _255
REMARK  111  A    between atoms: _254  and  _257
REMARK  112  A    between atoms: _257  and  _258
REMARK  113  A    between atoms: _264  and  _266
REMARK  114  A    between atoms: _266  and  _267
REMARK  115  A    between atoms: _266  and  _269
REMARK  116  A    between atoms: _271  and  _273
REMARK  117  A    between atoms: _273  and  _274
REMARK  118  A    between atoms: _277  and  _279
REMARK  119  A    between atoms: _279  and  _280
REMARK  120  A    between atoms: _282  and  _284
REMARK  121  A    between atoms: _284  and  _285
REMARK  122  A    between atoms: _284  and  _287
REMARK  123  A    between atoms: _287  and  _288
REMARK  124  A    between atoms: _288  and  _289
REMARK  125  A    between atoms: _292  and  _294
REMARK  126  A    between atoms: _294  and  _295
REMARK  127  A    between atoms: _294  and  _297
REMARK  128  A    between atoms: _297  and  _298
REMARK  129  A    between atoms: _301  and  _303
REMARK  130  A    between atoms: _303  and  _304
REMARK  131  A    between atoms: _307  and  _309
REMARK  132  A    between atoms: _309  and  _310
REMARK  133  A    between atoms: _309  and  _312
REMARK  134  A    between atoms: _312  and  _313
REMARK  135  A    between atoms: _313  and  _436
REMARK  136  A    between atoms: _314  and  _316
REMARK  137  A    between atoms: _316  and  _317
REMARK  138  A    between atoms: _316  and  _319
REMARK  139  A    between atoms: _319  and  _320
REMARK  140  A    between atoms: _320  and  _321
REMARK  141  A    between atoms: _326  and  _328
REMARK  142  A    between atoms: _328  and  _329
REMARK  143  A    between atoms: _331  and  _333
REMARK  144  A    between atoms: _333  and  _334
REMARK  145  A    between atoms: _333  and  _336
REMARK  146  A    between atoms: _336  and  _337
REMARK  147  A    between atoms: _340  and  _342
REMARK  148  A    between atoms: _342  and  _343
REMARK  149  A    between atoms: _342  and  _345
REMARK  150  A    between atoms: _345  and  _346
REMARK  151  A    between atoms: _348  and  _350
REMARK  152  A    between atoms: _350  and  _351
REMARK  153  A    between atoms: _353  and  _355
REMARK  154  A    between atoms: _355  and  _356
REMARK  155  A    between atoms: _358  and  _360
REMARK  156  A    between atoms: _360  and  _361
REMARK  157  A    between atoms: _360  and  _363
REMARK  158  A    between atoms: _363  and  _364
REMARK  159  A    between atoms: _369  and  _371
REMARK  160  A    between atoms: _371  and  _372
REMARK  161  A    between atoms: _371  and  _374
REMARK  162  A    between atoms: _374  and  _375
REMARK  163  A    between atoms: _378  and  _380
REMARK  164  A    between atoms: _380  and  _381
REMARK  165  A    between atoms: _380  and  _383
REMARK  166  A    between atoms: _386  and  _388
REMARK  167  A    between atoms: _388  and  _389
REMARK  168  A    between atoms: _388  and  _391
REMARK  169  A    between atoms: _391  and  _392
REMARK  170  A    between atoms: _394  and  _396
REMARK  171  A    between atoms: _396  and  _397
REMARK  172  A    between atoms: _396  and  _399
REMARK  173  A    between atoms: _399  and  _400
REMARK  174  A    between atoms: _410  and  _412
REMARK  175  A    between atoms: _412  and  _413
REMARK  176  A    between atoms: _415  and  _417
REMARK  177  A    between atoms: _417  and  _418
REMARK  178  A    between atoms: _417  and  _420
REMARK  179  A    between atoms: _420  and  _421
REMARK  180  A    between atoms: _421  and  _422
REMARK  181  A    between atoms: _425  and  _427
REMARK  182  A    between atoms: _427  and  _428
REMARK  183  A    between atoms: _430  and  _432
REMARK  184  A    between atoms: _432  and  _433
REMARK  185  A    between atoms: _432  and  _435
REMARK  186  A    between atoms: _435  and  _436
REMARK  187  A    between atoms: _437  and  _439
REMARK  188  A    between atoms: _439  and  _440
REMARK  189  A    between atoms: _443  and  _445
REMARK  190  A    between atoms: _445  and  _446
REMARK  191  A    between atoms: _445  and  _448
REMARK  192  A    between atoms: _448  and  _449
REMARK  193  A    between atoms: _449  and  _450
REMARK  194  A    between atoms: _450  and  _451
REMARK  195  A    between atoms: _460  and  _462
REMARK  196  A    between atoms: _462  and  _463
REMARK  197  A    between atoms: _462  and  _465
REMARK  198  A    between atoms: _465  and  _466
REMARK  199  A    between atoms: _466  and  _467
REMARK  200  A    between atoms: _467  and  _468
REMARK  201  A    between atoms: _468  and  _469
REMARK  202  A    between atoms: _473  and  _475
REMARK  203  A    between atoms: _475  and  _476
REMARK  204  A    between atoms: _475  and  _478
REMARK  205  A    between atoms: _478  and  _479
REMARK  206  A    between atoms: _484  and  _485
REMARK  207  A    between atoms: _487  and  _489
REMARK  208  A    between atoms: _489  and  _490
REMARK  209  A    between atoms: _492  and  _494
REMARK  210  A    between atoms: _494  and  _495
REMARK  211  A    between atoms: _494  and  _497
REMARK  212  A    between atoms: _497  and  _498
REMARK  213  A    between atoms: _501  and  _503
REMARK  214  A    between atoms: _503  and  _504
REMARK  215  A    between atoms: _503  and  _506
REMARK  216  A    between atoms: _506  and  _507
REMARK  217  A    between atoms: _512  and  _513
REMARK  218  A    between atoms: _515  and  _517
REMARK  219  A    between atoms: _517  and  _518
REMARK  220  A    between atoms: _517  and  _520
REMARK  221  A    between atoms: _520  and  _521
REMARK                            x       y       z     vdW  Elec       q    Type
REMARK                         _______ _______ _______ _____ _____    ______ ____
ROOT
ATOM      1  CA  VAL A   1      24.573  63.629   7.912  0.00  0.00    +0.133 C 
ENDROOT
BRANCH   1   2
ATOM      2  CB  VAL A   1      23.016  63.597   8.137  0.00  0.00    +0.023 C 
ATOM      3  CG2 VAL A   1      22.549  64.686   9.102  0.00  0.00    +0.002 C 
ATOM      4  CG1 VAL A   1      22.254  63.706   6.808  0.00  0.00    +0.002 C 
ENDBRANCH   1   2
BRANCH   1   5
ATOM      5  N   VAL A   1      25.305  63.452   9.166  0.00  0.00    -0.239 NA
ATOM      6  H   VAL A   1      25.057  64.040   9.987  0.00  0.00    +0.142 HD
ENDBRANCH   1   5
BRANCH   1   7
ATOM      7  C   VAL A   1      24.999  64.970   7.292  0.00  0.00    +0.224 C 
ATOM      8  O   VAL A   1      25.317  65.930   8.007  0.00  0.00    -0.287 OA
ENDBRANCH   1   7
TORSDOF 3
REMARK  Name = ../refined-set-2016/2vwo/2vwo_pocket.pdb
REMARK  221 active torsions:
REMARK  status: ('A' for Active; 'I' for Inactive)
REMARK    1  A    between atoms: _1  and  _5
REMARK    2  A    between atoms: _5  and  _6
REMARK    3  A    between atoms: _5  and  _8
REMARK    4  A    between atoms: _8  and  _9
REMARK    5  A    between atoms: _12  and  _14
REMARK    6  A    between atoms: _14  and  _15
REMARK    7  A    between atoms: _14  and  _17
REMARK    8  A    between atoms: _20  and  _22
REMARK    9  A    between atoms: _22  and  _23
REMARK   10  A    between atoms: _22  and  _25
REMARK   11  A    between atoms: _25  and  _26
REMARK   12  A    between atoms: _31  and  _33
REMARK   13  A    between atoms: _33  and  _34
REMARK   14  A    between atoms: _33  and  _36
REMARK   15  A    between atoms: _36  and  _37
REMARK   16  A    between atoms: _37  and  _38
REMARK   17  A    between atoms: _43  and  _45
REMARK   18  A    between atoms: _45  and  _46
REMARK   19  A    between atoms: _45  and  _48
REMARK   20  A    between atoms: _48  and  _49
REMARK   21  A    between atoms: _52  and  _54
REMARK   22  A    between atoms: _54  and  _55
REMARK   23  A    between atoms: _54  and  _57
REMARK   24  A    between atoms: _57  and  _58
REMARK   25  A    between atoms: _58  and  _59
REMARK   26  A    between atoms: _59  and  _60
REMARK   27  A    between atoms: _60  and  _61
REMARK   28  A    between atoms: _65  and  _67
REMARK   29  A    between atoms: _67  and  _68
REMARK   30  A    between atoms: _67  and  _70
REMARK   31  A    between atoms: _70  and  _71
REMARK   32  A    between atoms: _71  and  _72
REMARK   33  A    between atoms: _75  and  _77
REMARK   34  A    between atoms: _77  and  _78
REMARK   35  A    between atoms: _77  and  _80
REMARK   36  A    between atoms: _80  and  _81
REMARK   37  A    between atoms: _84  and  _86
REMARK   38  A    between atoms: _86  and  _87
REMARK   39  A    between atoms: _86  and  _89
REMARK   40  A    between atoms: _89  and  _90
REMARK   41  A    between atoms: _95  and  _96
REMARK   42  A    between atoms: _98  and  _100
REMARK   43  A    between atoms: _100  and  _101
REMARK   44  A    between atoms: _100  and  _103
REMARK   45  A    between atoms: _103  and  _104
REMARK   46  A    between atoms: _107  and  _109
REMARK   47  A    between atoms: _109  and  _110
REMARK   48  A    between atoms: _109  and  _112
REMARK   49  A    between atoms: _112  and  _113
REMARK   50  A    between atoms: _116  and  _118
REMARK   51  A    between atoms: _118  and  _119
REMARK   52  A    between atoms: _118  and  _121
REMARK   53  A    between atoms: _124  and  _126
REMARK   54  A    between atoms: _126  and  _127
REMARK   55  A    between atoms: _126  and  _129
REMARK   56  A    between atoms: _129  and  _130
REMARK   57  A    between atoms: _130  and  _131
REMARK   58  A    between atoms: _131  and  _132
REMARK   59  A    between atoms: _141  and  _143
REMARK   60  A    between atoms: _143  and  _144
REMARK   61  A    between atoms: _143  and  _146
REMARK   62  A    between atoms: _146  and  _147
REMARK   63  A    between atoms: _152  and  _154
REMARK   64  A    between atoms: _154  and  _155
REMARK   65  A    between atoms: _154  and  _157
REMARK   66  A    between atoms: _157  and  _158
REMARK   67  A    between atoms: _158  and  _159
REMARK   68  A    between atoms: _162  and  _164
REMARK   69  A    between atoms: _164  and  _165
REMARK   70  A    between atoms: _164  and  _167
REMARK   71  A    between atoms: _167  and  _168
REMARK   72  A    between atoms: _168  and  _169
REMARK   73  A    between atoms: _169  and  _170
REMARK   74  A    between atoms: _170  and  _171
REMARK   75  A    between atoms: _175  and  _177
REMARK   76  A    between atoms: _177  and  _178
REMARK   77  A    between atoms: _180  and  _182
REMARK   78  A    between atoms: _182  and  _183
REMARK   79  A    between atoms: _182  and  _185
REMARK   80  A    between atoms: _188  and  _190
REMARK   81  A    between atoms: _190  and  _191
REMARK   82  A    between atoms: _190  and  _193
REMARK   83  A    between atoms: _193  and  _194
REMARK   84  A    between atoms: _196  and  _198
REMARK   85  A    between atoms: _198  and  _199
REMARK   86  A    between atoms: _198  and  _201
REMARK   87  A    between atoms: _201  and  _202
REMARK   88  A    between atoms: _204  and  _206
REMARK   89  A    between atoms: _206  and  _207
REMARK   90  A    between atoms: _206  and  _209
REMARK   91  A    between atoms: _209  and  _210
REMARK   92  A    between atoms: _216  and  _218
REMARK   93  A    between atoms: _218  and  _219
REMARK   94  A    between atoms: _218  and  _221
REMARK   95  A    between atoms: _221  and  _222
REMARK   96  A    between atoms: _225  and  _227
REMARK   97  A    between atoms: _227  and  _228
REMARK   98  A    between atoms: _227  and  _230
REMARK   99  A    between atoms: _230  and  _231
REMARK  100  A    between atoms: _234  and  _236
REMARK  101  A    between atoms: _236  and  _237
REMARK  102  A    between atoms: _236  and  _239
REMARK  103  A    between atoms: _239  and  _240
REMARK  104  A    between atoms: _243  and  _245
REMARK  105  A    between atoms: _245  and  _246
REMARK  106  A    between atoms: _245  and  _248
REMARK  107  A    between atoms: _248  and  _249
REMARK  108  A    between atoms: _249  and  _250
REMARK  109  A    between atoms: _252  and  _254
REMARK  110  A    between atoms: _254  and  _255
REMARK  111  A    between atoms: _254  and  _257
REMARK  112  A    between atoms: _257  and  _258
REMARK  113  A    between atoms: _264  and  _266
REMARK  114  A    between atoms: _266  and  _267
REMARK  115  A    between atoms: _266  and  _269
REMARK  116  A    between atoms: _271  and  _273
REMARK  117  A    between atoms: _273  and  _274
REMARK  118  A    between atoms: _277  and  _279
REMARK  119  A    between atoms: _279  and  _280
REMARK  120  A    between atoms: _282  and  _284
REMARK  121  A    between atoms: _284  and  _285
REMARK  122  A    between atoms: _284  and  _287
REMARK  123  A    between atoms: _287  and  _288
REMARK  124  A    between atoms: _288  and  _289
REMARK  125  A    between atoms: _292  and  _294
REMARK  126  A    between atoms: _294  and  _295
REMARK  127  A    between atoms: _294  and  _297
REMARK  128  A    between atoms: _297  and  _298
REMARK  129  A    between atoms: _301  and  _303
REMARK  130  A    between atoms: _303  and  _304
REMARK  131  A    between atoms: _307  and  _309
REMARK  132  A    between atoms: _309  and  _310
REMARK  133  A    between atoms: _309  and  _312
REMARK  134  A    between atoms: _312  and  _313
REMARK  135  A    between atoms: _313  and  _436
REMARK  136  A    between atoms: _314  and  _316
REMARK  137  A    between atoms: _316  and  _317
REMARK  138  A    between atoms: _316  and  _319
REMARK  139  A    between atoms: _319  and  _320
REMARK  140  A    between atoms: _320  and  _321
REMARK  141  A    between atoms: _326  and  _328
REMARK  142  A    between atoms: _328  and  _329
REMARK  143  A    between atoms: _331  and  _333
REMARK  144  A    between atoms: _333  and  _334
REMARK  145  A    between atoms: _333  and  _336
REMARK  146  A    between atoms: _336  and  _337
REMARK  147  A    between atoms: _340  and  _342
REMARK  148  A    between atoms: _342  and  _343
REMARK  149  A    between atoms: _342  and  _345
REMARK  150  A    between atoms: _345  and  _346
REMARK  151  A    between atoms: _348  and  _350
REMARK  152  A    between atoms: _350  and  _351
REMARK  153  A    between atoms: _353  and  _355
REMARK  154  A    between atoms: _355  and  _356
REMARK  155  A    between atoms: _358  and  _360
REMARK  156  A    between atoms: _360  and  _361
REMARK  157  A    between atoms: _360  and  _363
REMARK  158  A    between atoms: _363  and  _364
REMARK  159  A    between atoms: _369  and  _371
REMARK  160  A    between atoms: _371  and  _372
REMARK  161  A    between atoms: _371  and  _374
REMARK  162  A    between atoms: _374  and  _375
REMARK  163  A    between atoms: _378  and  _380
REMARK  164  A    between atoms: _380  and  _381
REMARK  165  A    between atoms: _380  and  _383
REMARK  166  A    between atoms: _386  and  _388
REMARK  167  A    between atoms: _388  and  _389
REMARK  168  A    between atoms: _388  and  _391
REMARK  169  A    between atoms: _391  and  _392
REMARK  170  A    between atoms: _394  and  _396
REMARK  171  A    between atoms: _396  and  _397
REMARK  172  A    between atoms: _396  and  _399
REMARK  173  A    between atoms: _399  and  _400
REMARK  174  A    between atoms: _410  and  _412
REMARK  175  A    between atoms: _412  and  _413
REMARK  176  A    between atoms: _415  and  _417
REMARK  177  A    between atoms: _417  and  _418
REMARK  178  A    between atoms: _417  and  _420
REMARK  179  A    between atoms: _420  and  _421
REMARK  180  A    between atoms: _421  and  _422
REMARK  181  A    between atoms: _425  and  _427
REMARK  182  A    between atoms: _427  and  _428
REMARK  183  A    between atoms: _430  and  _432
REMARK  184  A    between atoms: _432  and  _433
REMARK  185  A    between atoms: _432  and  _435
REMARK  186  A    between atoms: _435  and  _436
REMARK  187  A    between atoms: _437  and  _439
REMARK  188  A    between atoms: _439  and  _440
REMARK  189  A    between atoms: _443  and  _445
REMARK  190  A    between atoms: _445  and  _446
REMARK  191  A    between atoms: _445  and  _448
REMARK  192  A    between atoms: _448  and  _449
REMARK  193  A    between atoms: _449  and  _450
REMARK  194  A    between atoms: _450  and  _451
REMARK  195  A    between atoms: _460  and  _462
REMARK  196  A    between atoms: _462  and  _463
REMARK  197  A    between atoms: _462  and  _465
REMARK  198  A    between atoms: _465  and  _466
REMARK  199  A    between atoms: _466  and  _467
REMARK  200  A    between atoms: _467  and  _468
REMARK  201  A    between atoms: _468  and  _469
REMARK  202  A    between atoms: _473  and  _475
REMARK  203  A    between atoms: _475  and  _476
REMARK  204  A    between atoms: _475  and  _478
REMARK  205  A    between atoms: _478  and  _479
REMARK  206  A    between atoms: _484  and  _485
REMARK  207  A    between atoms: _487  and  _489
REMARK  208  A    between atoms: _489  and  _490
REMARK  209  A    between atoms: _492  and  _494
REMARK  210  A    between atoms: _494  and  _495
REMARK  211  A    between atoms: _494  and  _497
REMARK  212  A    between atoms: _497  and  _498
REMARK  213  A    between atoms: _501  and  _503
REMARK  214  A    between atoms: _503  and  _504
REMARK  215  A    between atoms: _503  and  _506
REMARK  216  A    between atoms: _506  and  _507
REMARK  217  A    between atoms: _512  and  _513
REMARK  218  A    between atoms: _515  and  _517
REMARK  219  A    between atoms: _517  and  _518
REMARK  220  A    between atoms: _517  and  _520
REMARK  221  A    between atoms: _520  and  _521
REMARK                            x       y       z     vdW  Elec       q    Type
REMARK                         _______ _______ _______ _____ _____    ______ ____
ROOT
ATOM      1  NE  ARG A   1      12.432  73.309   0.849  0.00  0.00    -0.265 N 
ATOM      2  CZ  ARG A   1      11.156  73.547   0.568  0.00  0.00    +0.342 C 
ATOM      3  NH2 ARG A   1      10.324  73.991   1.505  0.00  0.00    -0.292 N 
ATOM      4 HH21 ARG A   1      10.670  74.156   2.472  0.00  0.00    +0.255 HD
ATOM      5 HH22 ARG A   1       9.327  74.173   1.271  0.00  0.00    +0.255 HD
ATOM      6  NH1 ARG A   1      10.710  73.332  -0.666  0.00  0.00    -0.292 N 
ATOM      7 HH11 ARG A   1       9.713  73.515  -0.898  0.00  0.00    +0.255 HD
ATOM      8 HH12 ARG A   1      11.358  72.981  -1.399  0.00  0.00    +0.255 HD
ATOM      9  HE  ARG A   1      13.033  72.957   0.076  0.00  0.00    +0.259 HD
ENDROOT
BRANCH   1  10
ATOM     10  CD  ARG A   1      13.063  73.501   2.156  0.00  0.00    +0.174 C 
BRANCH  10  11
ATOM     11  CG  ARG A   1      14.581  73.442   2.020  0.00  0.00    +0.045 C 
BRANCH  11  12
ATOM     12  CB  ARG A   1      15.255  73.415   3.372  0.00  0.00    +0.029 C 
BRANCH  12  13
ATOM     13  CA  ARG A   1      16.779  73.583   3.315  0.00  0.00    +0.133 C 
BRANCH  13  14
ATOM     14  N   ARG A   1      17.395  72.452   2.617  0.00  0.00    -0.239 NA
ATOM     15  H   ARG A   1      16.772  71.738   2.189  0.00  0.00    +0.142 HD
ENDBRANCH  13  14
BRANCH  13  16
ATOM     16  C   ARG A   1      17.313  73.718   4.736  0.00  0.00    +0.224 C 
ATOM     17  O   ARG A   1      17.653  72.727   5.400  0.00  0.00    -0.287 OA
ENDBRANCH  13  16
ENDBRANCH  12  13
ENDBRANCH  11  12
ENDBRANCH  10  11
ENDBRANCH   1  10
TORSDOF 6
REMARK  Name = ../refined-set-2016/2vwo/2vwo_pocket.pdb
REMARK  221 active torsions:
REMARK  status: ('A' for Active; 'I' for Inactive)
REMARK    1  A    between atoms: _1  and  _5
REMARK    2  A    between atoms: _5  and  _6
REMARK    3  A    between atoms: _5  and  _8
REMARK    4  A    between atoms: _8  and  _9
REMARK    5  A    between atoms: _12  and  _14
REMARK    6  A    between atoms: _14  and  _15
REMARK    7  A    between atoms: _14  and  _17
REMARK    8  A    between atoms: _20  and  _22
REMARK    9  A    between atoms: _22  and  _23
REMARK   10  A    between atoms: _22  and  _25
REMARK   11  A    between atoms: _25  and  _26
REMARK   12  A    between atoms: _31  and  _33
REMARK   13  A    between atoms: _33  and  _34
REMARK   14  A    between atoms: _33  and  _36
REMARK   15  A    between atoms: _36  and  _37
REMARK   16  A    between atoms: _37  and  _38
REMARK   17  A    between atoms: _43  and  _45
REMARK   18  A    between atoms: _45  and  _46
REMARK   19  A    between atoms: _45  and  _48
REMARK   20  A    between atoms: _48  and  _49
REMARK   21  A    between atoms: _52  and  _54
REMARK   22  A    between atoms: _54  and  _55
REMARK   23  A    between atoms: _54  and  _57
REMARK   24  A    between atoms: _57  and  _58
REMARK   25  A    between atoms: _58  and  _59
REMARK   26  A    between atoms: _59  and  _60
REMARK   27  A    between atoms: _60  and  _61
REMARK   28  A    between atoms: _65  and  _67
REMARK   29  A    between atoms: _67  and  _68
REMARK   30  A    between atoms: _67  and  _70
REMARK   31  A    between atoms: _70  and  _71
REMARK   32  A    between atoms: _71  and  _72
REMARK   33  A    between atoms: _75  and  _77
REMARK   34  A    between atoms: _77  and  _78
REMARK   35  A    between atoms: _77  and  _80
REMARK   36  A    between atoms: _80  and  _81
REMARK   37  A    between atoms: _84  and  _86
REMARK   38  A    between atoms: _86  and  _87
REMARK   39  A    between atoms: _86  and  _89
REMARK   40  A    between atoms: _89  and  _90
REMARK   41  A    between atoms: _95  and  _96
REMARK   42  A    between atoms: _98  and  _100
REMARK   43  A    between atoms: _100  and  _101
REMARK   44  A    between atoms: _100  and  _103
REMARK   45  A    between atoms: _103  and  _104
REMARK   46  A    between atoms: _107  and  _109
REMARK   47  A    between atoms: _109  and  _110
REMARK   48  A    between atoms: _109  and  _112
REMARK   49  A    between atoms: _112  and  _113
REMARK   50  A    between atoms: _116  and  _118
REMARK   51  A    between atoms: _118  and  _119
REMARK   52  A    between atoms: _118  and  _121
REMARK   53  A    between atoms: _124  and  _126
REMARK   54  A    between atoms: _126  and  _127
REMARK   55  A    between atoms: _126  and  _129
REMARK   56  A    between atoms: _129  and  _130
REMARK   57  A    between atoms: _130  and  _131
REMARK   58  A    between atoms: _131  and  _132
REMARK   59  A    between atoms: _141  and  _143
REMARK   60  A    between atoms: _143  and  _144
REMARK   61  A    between atoms: _143  and  _146
REMARK   62  A    between atoms: _146  and  _147
REMARK   63  A    between atoms: _152  and  _154
REMARK   64  A    between atoms: _154  and  _155
REMARK   65  A    between atoms: _154  and  _157
REMARK   66  A    between atoms: _157  and  _158
REMARK   67  A    between atoms: _158  and  _159
REMARK   68  A    between atoms: _162  and  _164
REMARK   69  A    between atoms: _164  and  _165
REMARK   70  A    between atoms: _164  and  _167
REMARK   71  A    between atoms: _167  and  _168
REMARK   72  A    between atoms: _168  and  _169
REMARK   73  A    between atoms: _169  and  _170
REMARK   74  A    between atoms: _170  and  _171
REMARK   75  A    between atoms: _175  and  _177
REMARK   76  A    between atoms: _177  and  _178
REMARK   77  A    between atoms: _180  and  _182
REMARK   78  A    between atoms: _182  and  _183
REMARK   79  A    between atoms: _182  and  _185
REMARK   80  A    between atoms: _188  and  _190
REMARK   81  A    between atoms: _190  and  _191
REMARK   82  A    between atoms: _190  and  _193
REMARK   83  A    between atoms: _193  and  _194
REMARK   84  A    between atoms: _196  and  _198
REMARK   85  A    between atoms: _198  and  _199
REMARK   86  A    between atoms: _198  and  _201
REMARK   87  A    between atoms: _201  and  _202
REMARK   88  A    between atoms: _204  and  _206
REMARK   89  A    between atoms: _206  and  _207
REMARK   90  A    between atoms: _206  and  _209
REMARK   91  A    between atoms: _209  and  _210
REMARK   92  A    between atoms: _216  and  _218
REMARK   93  A    between atoms: _218  and  _219
REMARK   94  A    between atoms: _218  and  _221
REMARK   95  A    between atoms: _221  and  _222
REMARK   96  A    between atoms: _225  and  _227
REMARK   97  A    between atoms: _227  and  _228
REMARK   98  A    between atoms: _227  and  _230
REMARK   99  A    between atoms: _230  and  _231
REMARK  100  A    between atoms: _234  and  _236
REMARK  101  A    between atoms: _236  and  _237
REMARK  102  A    between atoms: _236  and  _239
REMARK  103  A    between atoms: _239  and  _240
REMARK  104  A    between atoms: _243  and  _245
REMARK  105  A    between atoms: _245  and  _246
REMARK  106  A    between atoms: _245  and  _248
REMARK  107  A    between atoms: _248  and  _249
REMARK  108  A    between atoms: _249  and  _250
REMARK  109  A    between atoms: _252  and  _254
REMARK  110  A    between atoms: _254  and  _255
REMARK  111  A    between atoms: _254  and  _257
REMARK  112  A    between atoms: _257  and  _258
REMARK  113  A    between atoms: _264  and  _266
REMARK  114  A    between atoms: _266  and  _267
REMARK  115  A    between atoms: _266  and  _269
REMARK  116  A    between atoms: _271  and  _273
REMARK  117  A    between atoms: _273  and  _274
REMARK  118  A    between atoms: _277  and  _279
REMARK  119  A    between atoms: _279  and  _280
REMARK  120  A    between atoms: _282  and  _284
REMARK  121  A    between atoms: _284  and  _285
REMARK  122  A    between atoms: _284  and  _287
REMARK  123  A    between atoms: _287  and  _288
REMARK  124  A    between atoms: _288  and  _289
REMARK  125  A    between atoms: _292  and  _294
REMARK  126  A    between atoms: _294  and  _295
REMARK  127  A    between atoms: _294  and  _297
REMARK  128  A    between atoms: _297  and  _298
REMARK  129  A    between atoms: _301  and  _303
REMARK  130  A    between atoms: _303  and  _304
REMARK  131  A    between atoms: _307  and  _309
REMARK  132  A    between atoms: _309  and  _310
REMARK  133  A    between atoms: _309  and  _312
REMARK  134  A    between atoms: _312  and  _313
REMARK  135  A    between atoms: _313  and  _436
REMARK  136  A    between atoms: _314  and  _316
REMARK  137  A    between atoms: _316  and  _317
REMARK  138  A    between atoms: _316  and  _319
REMARK  139  A    between atoms: _319  and  _320
REMARK  140  A    between atoms: _320  and  _321
REMARK  141  A    between atoms: _326  and  _328
REMARK  142  A    between atoms: _328  and  _329
REMARK  143  A    between atoms: _331  and  _333
REMARK  144  A    between atoms: _333  and  _334
REMARK  145  A    between atoms: _333  and  _336
REMARK  146  A    between atoms: _336  and  _337
REMARK  147  A    between atoms: _340  and  _342
REMARK  148  A    between atoms: _342  and  _343
REMARK  149  A    between atoms: _342  and  _345
REMARK  150  A    between atoms: _345  and  _346
REMARK  151  A    between atoms: _348  and  _350
REMARK  152  A    between atoms: _350  and  _351
REMARK  153  A    between atoms: _353  and  _355
REMARK  154  A    between atoms: _355  and  _356
REMARK  155  A    between atoms: _358  and  _360
REMARK  156  A    between atoms: _360  and  _361
REMARK  157  A    between atoms: _360  and  _363
REMARK  158  A    between atoms: _363  and  _364
REMARK  159  A    between atoms: _369  and  _371
REMARK  160  A    between atoms: _371  and  _372
REMARK  161  A    between atoms: _371  and  _374
REMARK  162  A    between atoms: _374  and  _375
REMARK  163  A    between atoms: _378  and  _380
REMARK  164  A    between atoms: _380  and  _381
REMARK  165  A    between atoms: _380  and  _383
REMARK  166  A    between atoms: _386  and  _388
REMARK  167  A    between atoms: _388  and  _389
REMARK  168  A    between atoms: _388  and  _391
REMARK  169  A    between atoms: _391  and  _392
REMARK  170  A    between atoms: _394  and  _396
REMARK  171  A    between atoms: _396  and  _397
REMARK  172  A    between atoms: _396  and  _399
REMARK  173  A    between atoms: _399  and  _400
REMARK  174  A    between atoms: _410  and  _412
REMARK  175  A    between atoms: _412  and  _413
REMARK  176  A    between atoms: _415  and  _417
REMARK  177  A    between atoms: _417  and  _418
REMARK  178  A    between atoms: _417  and  _420
REMARK  179  A    between atoms: _420  and  _421
REMARK  180  A    between atoms: _421  and  _422
REMARK  181  A    between atoms: _425  and  _427
REMARK  182  A    between atoms: _427  and  _428
REMARK  183  A    between atoms: _430  and  _432
REMARK  184  A    between atoms: _432  and  _433
REMARK  185  A    between atoms: _432  and  _435
REMARK  186  A    between atoms: _435  and  _436
REMARK  187  A    between atoms: _437  and  _439
REMARK  188  A    between atoms: _439  and  _440
REMARK  189  A    between atoms: _443  and  _445
REMARK  190  A    between atoms: _445  and  _446
REMARK  191  A    between atoms: _445  and  _448
REMARK  192  A    between atoms: _448  and  _449
REMARK  193  A    between atoms: _449  and  _450
REMARK  194  A    between atoms: _450  and  _451
REMARK  195  A    between atoms: _460  and  _462
REMARK  196  A    between atoms: _462  and  _463
REMARK  197  A    between atoms: _462  and  _465
REMARK  198  A    between atoms: _465  and  _466
REMARK  199  A    between atoms: _466  and  _467
REMARK  200  A    between atoms: _467  and  _468
REMARK  201  A    between atoms: _468  and  _469
REMARK  202  A    between atoms: _473  and  _475
REMARK  203  A    between atoms: _475  and  _476
REMARK  204  A    between atoms: _475  and  _478
REMARK  205  A    between atoms: _478  and  _479
REMARK  206  A    between atoms: _484  and  _485
REMARK  207  A    between atoms: _487  and  _489
REMARK  208  A    between atoms: _489  and  _490
REMARK  209  A    between atoms: _492  and  _494
REMARK  210  A    between atoms: _494  and  _495
REMARK  211  A    between atoms: _494  and  _497
REMARK  212  A    between atoms: _497  and  _498
REMARK  213  A    between atoms: _501  and  _503
REMARK  214  A    between atoms: _503  and  _504
REMARK  215  A    between atoms: _503  and  _506
REMARK  216  A    between atoms: _506  and  _507
REMARK  217  A    between atoms: _512  and  _513
REMARK  218  A    between atoms: _515  and  _517
REMARK  219  A    between atoms: _517  and  _518
REMARK  220  A    between atoms: _517  and  _520
REMARK  221  A    between atoms: _520  and  _521
REMARK                            x       y       z     vdW  Elec       q    Type
REMARK                         _______ _______ _______ _____ _____    ______ ____
ROOT
ATOM      1  C   GLU A   2      10.726  74.014   5.776  0.00  0.00    +0.241 C 
ATOM      2  N   LYS A   3      10.360  75.265   5.991  0.00  0.00    -0.297 N 
ATOM      3  H   LYS A   3      10.563  75.729   6.899  0.00  0.00    +0.150 HD
ATOM      4  O   GLU A   2      10.621  73.494   4.673  0.00  0.00    -0.273 OA
ENDROOT
BRANCH   2   5
ATOM      5  CA  LYS A   3       9.664  75.983   4.927  0.00  0.00    +0.149 C 
BRANCH   5   6
ATOM      6  C   LYS A   3      10.593  76.948   4.201  0.00  0.00    +0.241 C 
ATOM      7  N   GLY A   4      11.886  76.801   4.462  0.00  0.00    -0.296 N 
ATOM      8  H   GLY A   4      12.201  75.969   5.000  0.00  0.00    +0.150 HD
ATOM      9  O   LYS A   3      10.144  77.779   3.388  0.00  0.00    -0.273 OA
BRANCH   7  10
ATOM     10  CA  GLY A   4      12.876  77.772   4.016  0.00  0.00    +0.163 C 
BRANCH  10  11
ATOM     11  C   GLY A   4      13.600  77.401   2.744  0.00  0.00    +0.229 C 
ATOM     12  O   GLY A   4      13.169  76.531   2.001  0.00  0.00    -0.286 OA
ENDBRANCH  10  11
ENDBRANCH   7  10
ENDBRANCH   5   6
BRANCH   5  13
ATOM     13  CB  LYS A   3       8.438  76.703   5.493  0.00  0.00    +0.029 C 
BRANCH  13  14
ATOM     14  CG  LYS A   3       7.347  75.747   5.941  0.00  0.00    +0.000 C 
BRANCH  14  15
ATOM     15  CD  LYS A   3       6.998  74.767   4.826  0.00  0.00    -0.024 C 
BRANCH  15  16
ATOM     16  CE  LYS A   3       5.670  74.074   5.099  0.00  0.00    -0.086 C 
BRANCH  16  17
ATOM     17  NZ  LYS A   3       5.275  73.197   3.965  0.00  0.00    +0.380 N 
ATOM     18  HZ1 LYS A   3       4.367  72.740   4.182  0.00  0.00    -0.089 HD
ATOM     19  HZ2 LYS A   3       6.005  72.470   3.820  0.00  0.00    -0.089 HD
ATOM     20  HZ3 LYS A   3       5.179  73.770   3.102  0.00  0.00    -0.089 HD
ENDBRANCH  16  17
ENDBRANCH  15  16
ENDBRANCH  14  15
ENDBRANCH  13  14
ENDBRANCH   5  13
ENDBRANCH   2   5
BRANCH   1  21
ATOM     21  CA  GLU A   2      11.295  73.235   6.968  0.00  0.00    +0.149 C 
BRANCH  21  23
ATOM     22  C   HIS A   1      13.268  74.581   7.024  0.00  0.00    +0.239 C 
ATOM     23  N   GLU A   2      12.301  73.980   7.697  0.00  0.00    -0.297 N 
ATOM     24  H   GLU A   2      12.263  74.041   8.735  0.00  0.00    +0.150 HD
ATOM     25  O   HIS A   1      13.287  74.631   5.787  0.00  0.00    -0.274 OA
BRANCH  22  26
ATOM     26  CA  HIS A   1      14.350  75.261   7.842  0.00  0.00    +0.151 C 
BRANCH  26  27
ATOM     27  N   HIS A   1      15.554  75.275   7.028  0.00  0.00    -0.238 NA
ATOM     28  H   HIS A   1      15.451  75.230   5.994  0.00  0.00    +0.142 HD
ENDBRANCH  26  27
BRANCH  26  29
ATOM     29  CB  HIS A   1      13.902  76.688   8.182  0.00  0.00    +0.074 C 
BRANCH  29  30
ATOM     30  CG  HIS A   1      14.921  77.480   8.945  0.00  0.00    +0.082 A 
ATOM     31  CD2 HIS A   1      15.212  77.526  10.267  0.00  0.00    +0.115 A 
ATOM     32  NE2 HIS A   1      16.242  78.423  10.426  0.00  0.00    -0.221 NA
ATOM     33  CE1 HIS A   1      16.572  78.911   9.243  0.00  0.00    +0.199 A 
ATOM     34  ND1 HIS A   1      15.788  78.359   8.332  0.00  0.00    -0.227 NA
ENDBRANCH  29  30
ENDBRANCH  26  29
ENDBRANCH  22  26
ENDBRANCH  21  23
BRANCH  21  35
ATOM     35  CB  GLU A   2      10.164  72.771   7.883  0.00  0.00    +0.041 C 
BRANCH  35  36
ATOM     36  CG  GLU A   2       9.218  71.837   7.167  0.00  0.00    +0.116 C 
BRANCH  36  37
ATOM     37  CD  GLU A   2       8.147  71.242   8.066  0.00  0.00    +0.365 C 
ATOM     38  OE2 GLU A   2       8.475  70.717   9.154  0.00  0.00    -0.246 OA
ATOM     39  OE1 GLU A   2       6.968  71.294   7.665  0.00  0.00    -0.246 OA
ENDBRANCH  36  37
ENDBRANCH  35  36
ENDBRANCH  21  35
ENDBRANCH   1  21
TORSDOF 18
REMARK  Name = ../refined-set-2016/2vwo/2vwo_pocket.pdb
REMARK  221 active torsions:
REMARK  status: ('A' for Active; 'I' for Inactive)
REMARK    1  A    between atoms: _1  and  _5
REMARK    2  A    between atoms: _5  and  _6
REMARK    3  A    between atoms: _5  and  _8
REMARK    4  A    between atoms: _8  and  _9
REMARK    5  A    between atoms: _12  and  _14
REMARK    6  A    between atoms: _14  and  _15
REMARK    7  A    between atoms: _14  and  _17
REMARK    8  A    between atoms: _20  and  _22
REMARK    9  A    between atoms: _22  and  _23
REMARK   10  A    between atoms: _22  and  _25
REMARK   11  A    between atoms: _25  and  _26
REMARK   12  A    between atoms: _31  and  _33
REMARK   13  A    between atoms: _33  and  _34
REMARK   14  A    between atoms: _33  and  _36
REMARK   15  A    between atoms: _36  and  _37
REMARK   16  A    between atoms: _37  and  _38
REMARK   17  A    between atoms: _43  and  _45
REMARK   18  A    between atoms: _45  and  _46
REMARK   19  A    between atoms: _45  and  _48
REMARK   20  A    between atoms: _48  and  _49
REMARK   21  A    between atoms: _52  and  _54
REMARK   22  A    between atoms: _54  and  _55
REMARK   23  A    between atoms: _54  and  _57
REMARK   24  A    between atoms: _57  and  _58
REMARK   25  A    between atoms: _58  and  _59
REMARK   26  A    between atoms: _59  and  _60
REMARK   27  A    between atoms: _60  and  _61
REMARK   28  A    between atoms: _65  and  _67
REMARK   29  A    between atoms: _67  and  _68
REMARK   30  A    between atoms: _67  and  _70
REMARK   31  A    between atoms: _70  and  _71
REMARK   32  A    between atoms: _71  and  _72
REMARK   33  A    between atoms: _75  and  _77
REMARK   34  A    between atoms: _77  and  _78
REMARK   35  A    between atoms: _77  and  _80
REMARK   36  A    between atoms: _80  and  _81
REMARK   37  A    between atoms: _84  and  _86
REMARK   38  A    between atoms: _86  and  _87
REMARK   39  A    between atoms: _86  and  _89
REMARK   40  A    between atoms: _89  and  _90
REMARK   41  A    between atoms: _95  and  _96
REMARK   42  A    between atoms: _98  and  _100
REMARK   43  A    between atoms: _100  and  _101
REMARK   44  A    between atoms: _100  and  _103
REMARK   45  A    between atoms: _103  and  _104
REMARK   46  A    between atoms: _107  and  _109
REMARK   47  A    between atoms: _109  and  _110
REMARK   48  A    between atoms: _109  and  _112
REMARK   49  A    between atoms: _112  and  _113
REMARK   50  A    between atoms: _116  and  _118
REMARK   51  A    between atoms: _118  and  _119
REMARK   52  A    between atoms: _118  and  _121
REMARK   53  A    between atoms: _124  and  _126
REMARK   54  A    between atoms: _126  and  _127
REMARK   55  A    between atoms: _126  and  _129
REMARK   56  A    between atoms: _129  and  _130
REMARK   57  A    between atoms: _130  and  _131
REMARK   58  A    between atoms: _131  and  _132
REMARK   59  A    between atoms: _141  and  _143
REMARK   60  A    between atoms: _143  and  _144
REMARK   61  A    between atoms: _143  and  _146
REMARK   62  A    between atoms: _146  and  _147
REMARK   63  A    between atoms: _152  and  _154
REMARK   64  A    between atoms: _154  and  _155
REMARK   65  A    between atoms: _154  and  _157
REMARK   66  A    between atoms: _157  and  _158
REMARK   67  A    between atoms: _158  and  _159
REMARK   68  A    between atoms: _162  and  _164
REMARK   69  A    between atoms: _164  and  _165
REMARK   70  A    between atoms: _164  and  _167
REMARK   71  A    between atoms: _167  and  _168
REMARK   72  A    between atoms: _168  and  _169
REMARK   73  A    between atoms: _169  and  _170
REMARK   74  A    between atoms: _170  and  _171
REMARK   75  A    between atoms: _175  and  _177
REMARK   76  A    between atoms: _177  and  _178
REMARK   77  A    between atoms: _180  and  _182
REMARK   78  A    between atoms: _182  and  _183
REMARK   79  A    between atoms: _182  and  _185
REMARK   80  A    between atoms: _188  and  _190
REMARK   81  A    between atoms: _190  and  _191
REMARK   82  A    between atoms: _190  and  _193
REMARK   83  A    between atoms: _193  and  _194
REMARK   84  A    between atoms: _196  and  _198
REMARK   85  A    between atoms: _198  and  _199
REMARK   86  A    between atoms: _198  and  _201
REMARK   87  A    between atoms: _201  and  _202
REMARK   88  A    between atoms: _204  and  _206
REMARK   89  A    between atoms: _206  and  _207
REMARK   90  A    between atoms: _206  and  _209
REMARK   91  A    between atoms: _209  and  _210
REMARK   92  A    between atoms: _216  and  _218
REMARK   93  A    between atoms: _218  and  _219
REMARK   94  A    between atoms: _218  and  _221
REMARK   95  A    between atoms: _221  and  _222
REMARK   96  A    between atoms: _225  and  _227
REMARK   97  A    between atoms: _227  and  _228
REMARK   98  A    between atoms: _227  and  _230
REMARK   99  A    between atoms: _230  and  _231
REMARK  100  A    between atoms: _234  and  _236
REMARK  101  A    between atoms: _236  and  _237
REMARK  102  A    between atoms: _236  and  _239
REMARK  103  A    between atoms: _239  and  _240
REMARK  104  A    between atoms: _243  and  _245
REMARK  105  A    between atoms: _245  and  _246
REMARK  106  A    between atoms: _245  and  _248
REMARK  107  A    between atoms: _248  and  _249
REMARK  108  A    between atoms: _249  and  _250
REMARK  109  A    between atoms: _252  and  _254
REMARK  110  A    between atoms: _254  and  _255
REMARK  111  A    between atoms: _254  and  _257
REMARK  112  A    between atoms: _257  and  _258
REMARK  113  A    between atoms: _264  and  _266
REMARK  114  A    between atoms: _266  and  _267
REMARK  115  A    between atoms: _266  and  _269
REMARK  116  A    between atoms: _271  and  _273
REMARK  117  A    between atoms: _273  and  _274
REMARK  118  A    between atoms: _277  and  _279
REMARK  119  A    between atoms: _279  and  _280
REMARK  120  A    between atoms: _282  and  _284
REMARK  121  A    between atoms: _284  and  _285
REMARK  122  A    between atoms: _284  and  _287
REMARK  123  A    between atoms: _287  and  _288
REMARK  124  A    between atoms: _288  and  _289
REMARK  125  A    between atoms: _292  and  _294
REMARK  126  A    between atoms: _294  and  _295
REMARK  127  A    between atoms: _294  and  _297
REMARK  128  A    between atoms: _297  and  _298
REMARK  129  A    between atoms: _301  and  _303
REMARK  130  A    between atoms: _303  and  _304
REMARK  131  A    between atoms: _307  and  _309
REMARK  132  A    between atoms: _309  and  _310
REMARK  133  A    between atoms: _309  and  _312
REMARK  134  A    between atoms: _312  and  _313
REMARK  135  A    between atoms: _313  and  _436
REMARK  136  A    between atoms: _314  and  _316
REMARK  137  A    between atoms: _316  and  _317
REMARK  138  A    between atoms: _316  and  _319
REMARK  139  A    between atoms: _319  and  _320
REMARK  140  A    between atoms: _320  and  _321
REMARK  141  A    between atoms: _326  and  _328
REMARK  142  A    between atoms: _328  and  _329
REMARK  143  A    between atoms: _331  and  _333
REMARK  144  A    between atoms: _333  and  _334
REMARK  145  A    between atoms: _333  and  _336
REMARK  146  A    between atoms: _336  and  _337
REMARK  147  A    between atoms: _340  and  _342
REMARK  148  A    between atoms: _342  and  _343
REMARK  149  A    between atoms: _342  and  _345
REMARK  150  A    between atoms: _345  and  _346
REMARK  151  A    between atoms: _348  and  _350
REMARK  152  A    between atoms: _350  and  _351
REMARK  153  A    between atoms: _353  and  _355
REMARK  154  A    between atoms: _355  and  _356
REMARK  155  A    between atoms: _358  and  _360
REMARK  156  A    between atoms: _360  and  _361
REMARK  157  A    between atoms: _360  and  _363
REMARK  158  A    between atoms: _363  and  _364
REMARK  159  A    between atoms: _369  and  _371
REMARK  160  A    between atoms: _371  and  _372
REMARK  161  A    between atoms: _371  and  _374
REMARK  162  A    between atoms: _374  and  _375
REMARK  163  A    between atoms: _378  and  _380
REMARK  164  A    between atoms: _380  and  _381
REMARK  165  A    between atoms: _380  and  _383
REMARK  166  A    between atoms: _386  and  _388
REMARK  167  A    between atoms: _388  and  _389
REMARK  168  A    between atoms: _388  and  _391
REMARK  169  A    between atoms: _391  and  _392
REMARK  170  A    between atoms: _394  and  _396
REMARK  171  A    between atoms: _396  and  _397
REMARK  172  A    between atoms: _396  and  _399
REMARK  173  A    between atoms: _399  and  _400
REMARK  174  A    between atoms: _410  and  _412
REMARK  175  A    between atoms: _412  and  _413
REMARK  176  A    between atoms: _415  and  _417
REMARK  177  A    between atoms: _417  and  _418
REMARK  178  A    between atoms: _417  and  _420
REMARK  179  A    between atoms: _420  and  _421
REMARK  180  A    between atoms: _421  and  _422
REMARK  181  A    between atoms: _425  and  _427
REMARK  182  A    between atoms: _427  and  _428
REMARK  183  A    between atoms: _430  and  _432
REMARK  184  A    between atoms: _432  and  _433
REMARK  185  A    between atoms: _432  and  _435
REMARK  186  A    between atoms: _435  and  _436
REMARK  187  A    between atoms: _437  and  _439
REMARK  188  A    between atoms: _439  and  _440
REMARK  189  A    between atoms: _443  and  _445
REMARK  190  A    between atoms: _445  and  _446
REMARK  191  A    between atoms: _445  and  _448
REMARK  192  A    between atoms: _448  and  _449
REMARK  193  A    between atoms: _449  and  _450
REMARK  194  A    between atoms: _450  and  _451
REMARK  195  A    between atoms: _460  and  _462
REMARK  196  A    between atoms: _462  and  _463
REMARK  197  A    between atoms: _462  and  _465
REMARK  198  A    between atoms: _465  and  _466
REMARK  199  A    between atoms: _466  and  _467
REMARK  200  A    between atoms: _467  and  _468
REMARK  201  A    between atoms: _468  and  _469
REMARK  202  A    between atoms: _473  and  _475
REMARK  203  A    between atoms: _475  and  _476
REMARK  204  A    between atoms: _475  and  _478
REMARK  205  A    between atoms: _478  and  _479
REMARK  206  A    between atoms: _484  and  _485
REMARK  207  A    between atoms: _487  and  _489
REMARK  208  A    between atoms: _489  and  _490
REMARK  209  A    between atoms: _492  and  _494
REMARK  210  A    between atoms: _494  and  _495
REMARK  211  A    between atoms: _494  and  _497
REMARK  212  A    between atoms: _497  and  _498
REMARK  213  A    between atoms: _501  and  _503
REMARK  214  A    between atoms: _503  and  _504
REMARK  215  A    between atoms: _503  and  _506
REMARK  216  A    between atoms: _506  and  _507
REMARK  217  A    between atoms: _512  and  _513
REMARK  218  A    between atoms: _515  and  _517
REMARK  219  A    between atoms: _517  and  _518
REMARK  220  A    between atoms: _517  and  _520
REMARK  221  A    between atoms: _520  and  _521
REMARK                            x       y       z     vdW  Elec       q    Type
REMARK                         _______ _______ _______ _____ _____    ______ ____
ROOT
ATOM      1  CA  VAL A   1      22.694  62.990  14.676  0.00  0.00    +0.133 C 
ENDROOT
BRANCH   1   2
ATOM      2  CB  VAL A   1      21.747  62.766  13.445  0.00  0.00    +0.023 C 
ATOM      3  CG2 VAL A   1      21.326  64.093  12.831  0.00  0.00    +0.002 C 
ATOM      4  CG1 VAL A   1      22.437  61.865  12.425  0.00  0.00    +0.002 C 
ENDBRANCH   1   2
BRANCH   1   5
ATOM      5  N   VAL A   1      24.012  63.454  14.261  0.00  0.00    -0.239 NA
ATOM      6  H   VAL A   1      24.628  62.834  13.697  0.00  0.00    +0.142 HD
ENDBRANCH   1   5
BRANCH   1   7
ATOM      7  C   VAL A   1      22.830  61.682  15.453  0.00  0.00    +0.224 C 
ATOM      8  O   VAL A   1      23.442  60.731  14.994  0.00  0.00    -0.287 OA
ENDBRANCH   1   7
TORSDOF 3
REMARK  Name = ../refined-set-2016/2vwo/2vwo_pocket.pdb
REMARK  221 active torsions:
REMARK  status: ('A' for Active; 'I' for Inactive)
REMARK    1  A    between atoms: _1  and  _5
REMARK    2  A    between atoms: _5  and  _6
REMARK    3  A    between atoms: _5  and  _8
REMARK    4  A    between atoms: _8  and  _9
REMARK    5  A    between atoms: _12  and  _14
REMARK    6  A    between atoms: _14  and  _15
REMARK    7  A    between atoms: _14  and  _17
REMARK    8  A    between atoms: _20  and  _22
REMARK    9  A    between atoms: _22  and  _23
REMARK   10  A    between atoms: _22  and  _25
REMARK   11  A    between atoms: _25  and  _26
REMARK   12  A    between atoms: _31  and  _33
REMARK   13  A    between atoms: _33  and  _34
REMARK   14  A    between atoms: _33  and  _36
REMARK   15  A    between atoms: _36  and  _37
REMARK   16  A    between atoms: _37  and  _38
REMARK   17  A    between atoms: _43  and  _45
REMARK   18  A    between atoms: _45  and  _46
REMARK   19  A    between atoms: _45  and  _48
REMARK   20  A    between atoms: _48  and  _49
REMARK   21  A    between atoms: _52  and  _54
REMARK   22  A    between atoms: _54  and  _55
REMARK   23  A    between atoms: _54  and  _57
REMARK   24  A    between atoms: _57  and  _58
REMARK   25  A    between atoms: _58  and  _59
REMARK   26  A    between atoms: _59  and  _60
REMARK   27  A    between atoms: _60  and  _61
REMARK   28  A    between atoms: _65  and  _67
REMARK   29  A    between atoms: _67  and  _68
REMARK   30  A    between atoms: _67  and  _70
REMARK   31  A    between atoms: _70  and  _71
REMARK   32  A    between atoms: _71  and  _72
REMARK   33  A    between atoms: _75  and  _77
REMARK   34  A    between atoms: _77  and  _78
REMARK   35  A    between atoms: _77  and  _80
REMARK   36  A    between atoms: _80  and  _81
REMARK   37  A    between atoms: _84  and  _86
REMARK   38  A    between atoms: _86  and  _87
REMARK   39  A    between atoms: _86  and  _89
REMARK   40  A    between atoms: _89  and  _90
REMARK   41  A    between atoms: _95  and  _96
REMARK   42  A    between atoms: _98  and  _100
REMARK   43  A    between atoms: _100  and  _101
REMARK   44  A    between atoms: _100  and  _103
REMARK   45  A    between atoms: _103  and  _104
REMARK   46  A    between atoms: _107  and  _109
REMARK   47  A    between atoms: _109  and  _110
REMARK   48  A    between atoms: _109  and  _112
REMARK   49  A    between atoms: _112  and  _113
REMARK   50  A    between atoms: _116  and  _118
REMARK   51  A    between atoms: _118  and  _119
REMARK   52  A    between atoms: _118  and  _121
REMARK   53  A    between atoms: _124  and  _126
REMARK   54  A    between atoms: _126  and  _127
REMARK   55  A    between atoms: _126  and  _129
REMARK   56  A    between atoms: _129  and  _130
REMARK   57  A    between atoms: _130  and  _131
REMARK   58  A    between atoms: _131  and  _132
REMARK   59  A    between atoms: _141  and  _143
REMARK   60  A    between atoms: _143  and  _144
REMARK   61  A    between atoms: _143  and  _146
REMARK   62  A    between atoms: _146  and  _147
REMARK   63  A    between atoms: _152  and  _154
REMARK   64  A    between atoms: _154  and  _155
REMARK   65  A    between atoms: _154  and  _157
REMARK   66  A    between atoms: _157  and  _158
REMARK   67  A    between atoms: _158  and  _159
REMARK   68  A    between atoms: _162  and  _164
REMARK   69  A    between atoms: _164  and  _165
REMARK   70  A    between atoms: _164  and  _167
REMARK   71  A    between atoms: _167  and  _168
REMARK   72  A    between atoms: _168  and  _169
REMARK   73  A    between atoms: _169  and  _170
REMARK   74  A    between atoms: _170  and  _171
REMARK   75  A    between atoms: _175  and  _177
REMARK   76  A    between atoms: _177  and  _178
REMARK   77  A    between atoms: _180  and  _182
REMARK   78  A    between atoms: _182  and  _183
REMARK   79  A    between atoms: _182  and  _185
REMARK   80  A    between atoms: _188  and  _190
REMARK   81  A    between atoms: _190  and  _191
REMARK   82  A    between atoms: _190  and  _193
REMARK   83  A    between atoms: _193  and  _194
REMARK   84  A    between atoms: _196  and  _198
REMARK   85  A    between atoms: _198  and  _199
REMARK   86  A    between atoms: _198  and  _201
REMARK   87  A    between atoms: _201  and  _202
REMARK   88  A    between atoms: _204  and  _206
REMARK   89  A    between atoms: _206  and  _207
REMARK   90  A    between atoms: _206  and  _209
REMARK   91  A    between atoms: _209  and  _210
REMARK   92  A    between atoms: _216  and  _218
REMARK   93  A    between atoms: _218  and  _219
REMARK   94  A    between atoms: _218  and  _221
REMARK   95  A    between atoms: _221  and  _222
REMARK   96  A    between atoms: _225  and  _227
REMARK   97  A    between atoms: _227  and  _228
REMARK   98  A    between atoms: _227  and  _230
REMARK   99  A    between atoms: _230  and  _231
REMARK  100  A    between atoms: _234  and  _236
REMARK  101  A    between atoms: _236  and  _237
REMARK  102  A    between atoms: _236  and  _239
REMARK  103  A    between atoms: _239  and  _240
REMARK  104  A    between atoms: _243  and  _245
REMARK  105  A    between atoms: _245  and  _246
REMARK  106  A    between atoms: _245  and  _248
REMARK  107  A    between atoms: _248  and  _249
REMARK  108  A    between atoms: _249  and  _250
REMARK  109  A    between atoms: _252  and  _254
REMARK  110  A    between atoms: _254  and  _255
REMARK  111  A    between atoms: _254  and  _257
REMARK  112  A    between atoms: _257  and  _258
REMARK  113  A    between atoms: _264  and  _266
REMARK  114  A    between atoms: _266  and  _267
REMARK  115  A    between atoms: _266  and  _269
REMARK  116  A    between atoms: _271  and  _273
REMARK  117  A    between atoms: _273  and  _274
REMARK  118  A    between atoms: _277  and  _279
REMARK  119  A    between atoms: _279  and  _280
REMARK  120  A    between atoms: _282  and  _284
REMARK  121  A    between atoms: _284  and  _285
REMARK  122  A    between atoms: _284  and  _287
REMARK  123  A    between atoms: _287  and  _288
REMARK  124  A    between atoms: _288  and  _289
REMARK  125  A    between atoms: _292  and  _294
REMARK  126  A    between atoms: _294  and  _295
REMARK  127  A    between atoms: _294  and  _297
REMARK  128  A    between atoms: _297  and  _298
REMARK  129  A    between atoms: _301  and  _303
REMARK  130  A    between atoms: _303  and  _304
REMARK  131  A    between atoms: _307  and  _309
REMARK  132  A    between atoms: _309  and  _310
REMARK  133  A    between atoms: _309  and  _312
REMARK  134  A    between atoms: _312  and  _313
REMARK  135  A    between atoms: _313  and  _436
REMARK  136  A    between atoms: _314  and  _316
REMARK  137  A    between atoms: _316  and  _317
REMARK  138  A    between atoms: _316  and  _319
REMARK  139  A    between atoms: _319  and  _320
REMARK  140  A    between atoms: _320  and  _321
REMARK  141  A    between atoms: _326  and  _328
REMARK  142  A    between atoms: _328  and  _329
REMARK  143  A    between atoms: _331  and  _333
REMARK  144  A    between atoms: _333  and  _334
REMARK  145  A    between atoms: _333  and  _336
REMARK  146  A    between atoms: _336  and  _337
REMARK  147  A    between atoms: _340  and  _342
REMARK  148  A    between atoms: _342  and  _343
REMARK  149  A    between atoms: _342  and  _345
REMARK  150  A    between atoms: _345  and  _346
REMARK  151  A    between atoms: _348  and  _350
REMARK  152  A    between atoms: _350  and  _351
REMARK  153  A    between atoms: _353  and  _355
REMARK  154  A    between atoms: _355  and  _356
REMARK  155  A    between atoms: _358  and  _360
REMARK  156  A    between atoms: _360  and  _361
REMARK  157  A    between atoms: _360  and  _363
REMARK  158  A    between atoms: _363  and  _364
REMARK  159  A    between atoms: _369  and  _371
REMARK  160  A    between atoms: _371  and  _372
REMARK  161  A    between atoms: _371  and  _374
REMARK  162  A    between atoms: _374  and  _375
REMARK  163  A    between atoms: _378  and  _380
REMARK  164  A    between atoms: _380  and  _381
REMARK  165  A    between atoms: _380  and  _383
REMARK  166  A    between atoms: _386  and  _388
REMARK  167  A    between atoms: _388  and  _389
REMARK  168  A    between atoms: _388  and  _391
REMARK  169  A    between atoms: _391  and  _392
REMARK  170  A    between atoms: _394  and  _396
REMARK  171  A    between atoms: _396  and  _397
REMARK  172  A    between atoms: _396  and  _399
REMARK  173  A    between atoms: _399  and  _400
REMARK  174  A    between atoms: _410  and  _412
REMARK  175  A    between atoms: _412  and  _413
REMARK  176  A    between atoms: _415  and  _417
REMARK  177  A    between atoms: _417  and  _418
REMARK  178  A    between atoms: _417  and  _420
REMARK  179  A    between atoms: _420  and  _421
REMARK  180  A    between atoms: _421  and  _422
REMARK  181  A    between atoms: _425  and  _427
REMARK  182  A    between atoms: _427  and  _428
REMARK  183  A    between atoms: _430  and  _432
REMARK  184  A    between atoms: _432  and  _433
REMARK  185  A    between atoms: _432  and  _435
REMARK  186  A    between atoms: _435  and  _436
REMARK  187  A    between atoms: _437  and  _439
REMARK  188  A    between atoms: _439  and  _440
REMARK  189  A    between atoms: _443  and  _445
REMARK  190  A    between atoms: _445  and  _446
REMARK  191  A    between atoms: _445  and  _448
REMARK  192  A    between atoms: _448  and  _449
REMARK  193  A    between atoms: _449  and  _450
REMARK  194  A    between atoms: _450  and  _451
REMARK  195  A    between atoms: _460  and  _462
REMARK  196  A    between atoms: _462  and  _463
REMARK  197  A    between atoms: _462  and  _465
REMARK  198  A    between atoms: _465  and  _466
REMARK  199  A    between atoms: _466  and  _467
REMARK  200  A    between atoms: _467  and  _468
REMARK  201  A    between atoms: _468  and  _469
REMARK  202  A    between atoms: _473  and  _475
REMARK  203  A    between atoms: _475  and  _476
REMARK  204  A    between atoms: _475  and  _478
REMARK  205  A    between atoms: _478  and  _479
REMARK  206  A    between atoms: _484  and  _485
REMARK  207  A    between atoms: _487  and  _489
REMARK  208  A    between atoms: _489  and  _490
REMARK  209  A    between atoms: _492  and  _494
REMARK  210  A    between atoms: _494  and  _495
REMARK  211  A    between atoms: _494  and  _497
REMARK  212  A    between atoms: _497  and  _498
REMARK  213  A    between atoms: _501  and  _503
REMARK  214  A    between atoms: _503  and  _504
REMARK  215  A    between atoms: _503  and  _506
REMARK  216  A    between atoms: _506  and  _507
REMARK  217  A    between atoms: _512  and  _513
REMARK  218  A    between atoms: _515  and  _517
REMARK  219  A    between atoms: _517  and  _518
REMARK  220  A    between atoms: _517  and  _520
REMARK  221  A    between atoms: _520  and  _521
REMARK                            x       y       z     vdW  Elec       q    Type
REMARK                         _______ _______ _______ _____ _____    ______ ____
ROOT
ATOM      1  C   PHE A   3       5.236  54.414   9.117  0.00  0.00    +0.241 C 
ATOM      2  O   PHE A   3       5.965  54.534  10.099  0.00  0.00    -0.273 OA
ATOM      3  N   ILE A   4       5.143  53.305   8.397  0.00  0.00    -0.297 N 
ATOM      4  H   ILE A   4       4.553  53.302   7.540  0.00  0.00    +0.150 HD
ENDROOT
BRANCH   3   5
ATOM      5  CA  ILE A   4       5.854  52.082   8.783  0.00  0.00    +0.149 C 
BRANCH   5   6
ATOM      6  C   ILE A   4       7.362  52.262   8.608  0.00  0.00    +0.241 C 
ATOM      7  N   ILE A   5       8.112  51.919   9.653  0.00  0.00    -0.297 N 
ATOM      8  H   ILE A   5       7.645  51.695  10.555  0.00  0.00    +0.150 HD
ATOM      9  O   ILE A   4       7.850  52.704   7.552  0.00  0.00    -0.273 OA
BRANCH   7  10
ATOM     10  CA  ILE A   5       9.566  51.847   9.577  0.00  0.00    +0.149 C 
BRANCH  10  11
ATOM     11  C   ILE A   5       9.939  50.396   9.313  0.00  0.00    +0.241 C 
ATOM     12  O   ILE A   5       9.598  49.496  10.112  0.00  0.00    -0.273 OA
ATOM     13  N   THR A   6      10.634  50.160   8.204  0.00  0.00    -0.296 N 
ATOM     14  H   THR A   6      10.911  50.965   7.606  0.00  0.00    +0.150 HD
BRANCH  13  15
ATOM     15  CA  THR A   6      11.025  48.805   7.791  0.00  0.00    +0.164 C 
BRANCH  15  16
ATOM     16  CB  THR A   6      10.906  48.565   6.269  0.00  0.00    +0.136 C 
ATOM     17  CG2 THR A   6       9.565  49.058   5.721  0.00  0.00    +0.034 C 
BRANCH  16  18
ATOM     18  OG1 THR A   6      12.005  49.192   5.580  0.00  0.00    -0.382 OA
ATOM     19  HG1 THR A   6      11.918  49.031   4.607  0.00  0.00    +0.210 HD
ENDBRANCH  16  18
ENDBRANCH  15  16
BRANCH  15  20
ATOM     20  C   THR A   6      12.428  48.454   8.253  0.00  0.00    +0.229 C 
ATOM     21  O   THR A   6      13.186  49.316   8.695  0.00  0.00    -0.286 OA
ENDBRANCH  15  20
ENDBRANCH  13  15
ENDBRANCH  10  11
BRANCH  10  22
ATOM     22  CB  ILE A   5      10.212  52.292  10.920  0.00  0.00    +0.027 C 
ATOM     23  CG2 ILE A   5      11.757  52.320  10.825  0.00  0.00    +0.002 C 
BRANCH  22  24
ATOM     24  CG1 ILE A   5       9.663  53.647  11.412  0.00  0.00    +0.002 C 
ATOM     25  CD1 ILE A   5       9.820  54.805  10.380  0.00  0.00    +0.000 C 
ENDBRANCH  22  24
ENDBRANCH  10  22
ENDBRANCH   7  10
ENDBRANCH   5   6
BRANCH   5  26
ATOM     26  CB  ILE A   4       5.350  50.881   7.944  0.00  0.00    +0.027 C 
ATOM     27  CG2 ILE A   4       6.240  49.658   8.165  0.00  0.00    +0.002 C 
BRANCH  26  28
ATOM     28  CG1 ILE A   4       3.901  50.557   8.323  0.00  0.00    +0.002 C 
ATOM     29  CD1 ILE A   4       3.145  49.848   7.233  0.00  0.00    +0.000 C 
ENDBRANCH  26  28
ENDBRANCH   5  26
ENDBRANCH   3   5
BRANCH   1  30
ATOM     30  CA  PHE A   3       4.402  55.587   8.635  0.00  0.00    +0.153 C 
BRANCH  30  33
ATOM     31  C   SER A   2       2.989  56.916  10.120  0.00  0.00    +0.243 C 
ATOM     32  O   SER A   2       1.959  56.324   9.796  0.00  0.00    -0.273 OA
ATOM     33  N   PHE A   3       4.202  56.578   9.678  0.00  0.00    -0.297 N 
ATOM     34  H   PHE A   3       5.034  57.041  10.096  0.00  0.00    +0.150 HD
BRANCH  31  35
ATOM     35  CA  SER A   2       2.913  58.065  11.100  0.00  0.00    +0.178 C 
BRANCH  35  38
ATOM     36  C   SER A   1       4.687  57.463  12.681  0.00  0.00    +0.241 C 
ATOM     37  O   SER A   1       4.036  56.509  13.143  0.00  0.00    -0.274 OA
ATOM     38  N   SER A   2       4.212  58.288  11.745  0.00  0.00    -0.295 N 
ATOM     39  H   SER A   2       4.779  59.113  11.465  0.00  0.00    +0.150 HD
BRANCH  36  40
ATOM     40  CA  SER A   1       6.100  57.737  13.159  0.00  0.00    +0.174 C 
BRANCH  40  41
ATOM     41  N   SER A   1       6.286  57.623  14.620  0.00  0.00    -0.236 NA
ATOM     42  H   SER A   1       6.437  56.687  15.048  0.00  0.00    +0.142 HD
ENDBRANCH  40  41
BRANCH  40  43
ATOM     43  CB  SER A   1       7.069  56.793  12.439  0.00  0.00    +0.163 C 
BRANCH  43  44
ATOM     44  OG  SER A   1       6.931  56.926  11.018  0.00  0.00    -0.380 OA
ATOM     45  H   SER A   1       7.132  57.859  10.754  0.00  0.00    +0.211 HD
ENDBRANCH  43  44
ENDBRANCH  40  43
ENDBRANCH  36  40
ENDBRANCH  35  38
BRANCH  35  46
ATOM     46  CB  SER A   2       2.445  59.321  10.329  0.00  0.00    +0.166 C 
BRANCH  46  47
ATOM     47  OG  SER A   2       2.448  60.465  11.160  0.00  0.00    -0.380 OA
ATOM     48  H   SER A   2       3.365  60.625  11.496  0.00  0.00    +0.211 HD
ENDBRANCH  46  47
ENDBRANCH  35  46
ENDBRANCH  31  35
ENDBRANCH  30  33
BRANCH  30  49
ATOM     49  CB  PHE A   3       5.093  56.233   7.429  0.00  0.00    +0.055 C 
BRANCH  49  50
ATOM     50  CG  PHE A   3       4.377  57.458   6.941  0.00  0.00    -0.020 A 
ATOM     51  CD2 PHE A   3       4.734  58.709   7.408  0.00  0.00    -0.004 A 
ATOM     52  CE2 PHE A   3       4.055  59.842   7.006  0.00  0.00    -0.000 A 
ATOM     53  CZ  PHE A   3       3.006  59.736   6.114  0.00  0.00    -0.000 A 
ATOM     54  CE1 PHE A   3       2.609  58.494   5.660  0.00  0.00    -0.000 A 
ATOM     55  CD1 PHE A   3       3.311  57.347   6.070  0.00  0.00    -0.004 A 
ENDBRANCH  49  50
ENDBRANCH  30  49
ENDBRANCH   1  30
TORSDOF 24
REMARK  Name = ../refined-set-2016/2vwo/2vwo_pocket.pdb
REMARK  221 active torsions:
REMARK  status: ('A' for Active; 'I' for Inactive)
REMARK    1  A    between atoms: _1  and  _5
REMARK    2  A    between atoms: _5  and  _6
REMARK    3  A    between atoms: _5  and  _8
REMARK    4  A    between atoms: _8  and  _9
REMARK    5  A    between atoms: _12  and  _14
REMARK    6  A    between atoms: _14  and  _15
REMARK    7  A    between atoms: _14  and  _17
REMARK    8  A    between atoms: _20  and  _22
REMARK    9  A    between atoms: _22  and  _23
REMARK   10  A    between atoms: _22  and  _25
REMARK   11  A    between atoms: _25  and  _26
REMARK   12  A    between atoms: _31  and  _33
REMARK   13  A    between atoms: _33  and  _34
REMARK   14  A    between atoms: _33  and  _36
REMARK   15  A    between atoms: _36  and  _37
REMARK   16  A    between atoms: _37  and  _38
REMARK   17  A    between atoms: _43  and  _45
REMARK   18  A    between atoms: _45  and  _46
REMARK   19  A    between atoms: _45  and  _48
REMARK   20  A    between atoms: _48  and  _49
REMARK   21  A    between atoms: _52  and  _54
REMARK   22  A    between atoms: _54  and  _55
REMARK   23  A    between atoms: _54  and  _57
REMARK   24  A    between atoms: _57  and  _58
REMARK   25  A    between atoms: _58  and  _59
REMARK   26  A    between atoms: _59  and  _60
REMARK   27  A    between atoms: _60  and  _61
REMARK   28  A    between atoms: _65  and  _67
REMARK   29  A    between atoms: _67  and  _68
REMARK   30  A    between atoms: _67  and  _70
REMARK   31  A    between atoms: _70  and  _71
REMARK   32  A    between atoms: _71  and  _72
REMARK   33  A    between atoms: _75  and  _77
REMARK   34  A    between atoms: _77  and  _78
REMARK   35  A    between atoms: _77  and  _80
REMARK   36  A    between atoms: _80  and  _81
REMARK   37  A    between atoms: _84  and  _86
REMARK   38  A    between atoms: _86  and  _87
REMARK   39  A    between atoms: _86  and  _89
REMARK   40  A    between atoms: _89  and  _90
REMARK   41  A    between atoms: _95  and  _96
REMARK   42  A    between atoms: _98  and  _100
REMARK   43  A    between atoms: _100  and  _101
REMARK   44  A    between atoms: _100  and  _103
REMARK   45  A    between atoms: _103  and  _104
REMARK   46  A    between atoms: _107  and  _109
REMARK   47  A    between atoms: _109  and  _110
REMARK   48  A    between atoms: _109  and  _112
REMARK   49  A    between atoms: _112  and  _113
REMARK   50  A    between atoms: _116  and  _118
REMARK   51  A    between atoms: _118  and  _119
REMARK   52  A    between atoms: _118  and  _121
REMARK   53  A    between atoms: _124  and  _126
REMARK   54  A    between atoms: _126  and  _127
REMARK   55  A    between atoms: _126  and  _129
REMARK   56  A    between atoms: _129  and  _130
REMARK   57  A    between atoms: _130  and  _131
REMARK   58  A    between atoms: _131  and  _132
REMARK   59  A    between atoms: _141  and  _143
REMARK   60  A    between atoms: _143  and  _144
REMARK   61  A    between atoms: _143  and  _146
REMARK   62  A    between atoms: _146  and  _147
REMARK   63  A    between atoms: _152  and  _154
REMARK   64  A    between atoms: _154  and  _155
REMARK   65  A    between atoms: _154  and  _157
REMARK   66  A    between atoms: _157  and  _158
REMARK   67  A    between atoms: _158  and  _159
REMARK   68  A    between atoms: _162  and  _164
REMARK   69  A    between atoms: _164  and  _165
REMARK   70  A    between atoms: _164  and  _167
REMARK   71  A    between atoms: _167  and  _168
REMARK   72  A    between atoms: _168  and  _169
REMARK   73  A    between atoms: _169  and  _170
REMARK   74  A    between atoms: _170  and  _171
REMARK   75  A    between atoms: _175  and  _177
REMARK   76  A    between atoms: _177  and  _178
REMARK   77  A    between atoms: _180  and  _182
REMARK   78  A    between atoms: _182  and  _183
REMARK   79  A    between atoms: _182  and  _185
REMARK   80  A    between atoms: _188  and  _190
REMARK   81  A    between atoms: _190  and  _191
REMARK   82  A    between atoms: _190  and  _193
REMARK   83  A    between atoms: _193  and  _194
REMARK   84  A    between atoms: _196  and  _198
REMARK   85  A    between atoms: _198  and  _199
REMARK   86  A    between atoms: _198  and  _201
REMARK   87  A    between atoms: _201  and  _202
REMARK   88  A    between atoms: _204  and  _206
REMARK   89  A    between atoms: _206  and  _207
REMARK   90  A    between atoms: _206  and  _209
REMARK   91  A    between atoms: _209  and  _210
REMARK   92  A    between atoms: _216  and  _218
REMARK   93  A    between atoms: _218  and  _219
REMARK   94  A    between atoms: _218  and  _221
REMARK   95  A    between atoms: _221  and  _222
REMARK   96  A    between atoms: _225  and  _227
REMARK   97  A    between atoms: _227  and  _228
REMARK   98  A    between atoms: _227  and  _230
REMARK   99  A    between atoms: _230  and  _231
REMARK  100  A    between atoms: _234  and  _236
REMARK  101  A    between atoms: _236  and  _237
REMARK  102  A    between atoms: _236  and  _239
REMARK  103  A    between atoms: _239  and  _240
REMARK  104  A    between atoms: _243  and  _245
REMARK  105  A    between atoms: _245  and  _246
REMARK  106  A    between atoms: _245  and  _248
REMARK  107  A    between atoms: _248  and  _249
REMARK  108  A    between atoms: _249  and  _250
REMARK  109  A    between atoms: _252  and  _254
REMARK  110  A    between atoms: _254  and  _255
REMARK  111  A    between atoms: _254  and  _257
REMARK  112  A    between atoms: _257  and  _258
REMARK  113  A    between atoms: _264  and  _266
REMARK  114  A    between atoms: _266  and  _267
REMARK  115  A    between atoms: _266  and  _269
REMARK  116  A    between atoms: _271  and  _273
REMARK  117  A    between atoms: _273  and  _274
REMARK  118  A    between atoms: _277  and  _279
REMARK  119  A    between atoms: _279  and  _280
REMARK  120  A    between atoms: _282  and  _284
REMARK  121  A    between atoms: _284  and  _285
REMARK  122  A    between atoms: _284  and  _287
REMARK  123  A    between atoms: _287  and  _288
REMARK  124  A    between atoms: _288  and  _289
REMARK  125  A    between atoms: _292  and  _294
REMARK  126  A    between atoms: _294  and  _295
REMARK  127  A    between atoms: _294  and  _297
REMARK  128  A    between atoms: _297  and  _298
REMARK  129  A    between atoms: _301  and  _303
REMARK  130  A    between atoms: _303  and  _304
REMARK  131  A    between atoms: _307  and  _309
REMARK  132  A    between atoms: _309  and  _310
REMARK  133  A    between atoms: _309  and  _312
REMARK  134  A    between atoms: _312  and  _313
REMARK  135  A    between atoms: _313  and  _436
REMARK  136  A    between atoms: _314  and  _316
REMARK  137  A    between atoms: _316  and  _317
REMARK  138  A    between atoms: _316  and  _319
REMARK  139  A    between atoms: _319  and  _320
REMARK  140  A    between atoms: _320  and  _321
REMARK  141  A    between atoms: _326  and  _328
REMARK  142  A    between atoms: _328  and  _329
REMARK  143  A    between atoms: _331  and  _333
REMARK  144  A    between atoms: _333  and  _334
REMARK  145  A    between atoms: _333  and  _336
REMARK  146  A    between atoms: _336  and  _337
REMARK  147  A    between atoms: _340  and  _342
REMARK  148  A    between atoms: _342  and  _343
REMARK  149  A    between atoms: _342  and  _345
REMARK  150  A    between atoms: _345  and  _346
REMARK  151  A    between atoms: _348  and  _350
REMARK  152  A    between atoms: _350  and  _351
REMARK  153  A    between atoms: _353  and  _355
REMARK  154  A    between atoms: _355  and  _356
REMARK  155  A    between atoms: _358  and  _360
REMARK  156  A    between atoms: _360  and  _361
REMARK  157  A    between atoms: _360  and  _363
REMARK  158  A    between atoms: _363  and  _364
REMARK  159  A    between atoms: _369  and  _371
REMARK  160  A    between atoms: _371  and  _372
REMARK  161  A    between atoms: _371  and  _374
REMARK  162  A    between atoms: _374  and  _375
REMARK  163  A    between atoms: _378  and  _380
REMARK  164  A    between atoms: _380  and  _381
REMARK  165  A    between atoms: _380  and  _383
REMARK  166  A    between atoms: _386  and  _388
REMARK  167  A    between atoms: _388  and  _389
REMARK  168  A    between atoms: _388  and  _391
REMARK  169  A    between atoms: _391  and  _392
REMARK  170  A    between atoms: _394  and  _396
REMARK  171  A    between atoms: _396  and  _397
REMARK  172  A    between atoms: _396  and  _399
REMARK  173  A    between atoms: _399  and  _400
REMARK  174  A    between atoms: _410  and  _412
REMARK  175  A    between atoms: _412  and  _413
REMARK  176  A    between atoms: _415  and  _417
REMARK  177  A    between atoms: _417  and  _418
REMARK  178  A    between atoms: _417  and  _420
REMARK  179  A    between atoms: _420  and  _421
REMARK  180  A    between atoms: _421  and  _422
REMARK  181  A    between atoms: _425  and  _427
REMARK  182  A    between atoms: _427  and  _428
REMARK  183  A    between atoms: _430  and  _432
REMARK  184  A    between atoms: _432  and  _433
REMARK  185  A    between atoms: _432  and  _435
REMARK  186  A    between atoms: _435  and  _436
REMARK  187  A    between atoms: _437  and  _439
REMARK  188  A    between atoms: _439  and  _440
REMARK  189  A    between atoms: _443  and  _445
REMARK  190  A    between atoms: _445  and  _446
REMARK  191  A    between atoms: _445  and  _448
REMARK  192  A    between atoms: _448  and  _449
REMARK  193  A    between atoms: _449  and  _450
REMARK  194  A    between atoms: _450  and  _451
REMARK  195  A    between atoms: _460  and  _462
REMARK  196  A    between atoms: _462  and  _463
REMARK  197  A    between atoms: _462  and  _465
REMARK  198  A    between atoms: _465  and  _466
REMARK  199  A    between atoms: _466  and  _467
REMARK  200  A    between atoms: _467  and  _468
REMARK  201  A    between atoms: _468  and  _469
REMARK  202  A    between atoms: _473  and  _475
REMARK  203  A    between atoms: _475  and  _476
REMARK  204  A    between atoms: _475  and  _478
REMARK  205  A    between atoms: _478  and  _479
REMARK  206  A    between atoms: _484  and  _485
REMARK  207  A    between atoms: _487  and  _489
REMARK  208  A    between atoms: _489  and  _490
REMARK  209  A    between atoms: _492  and  _494
REMARK  210  A    between atoms: _494  and  _495
REMARK  211  A    between atoms: _494  and  _497
REMARK  212  A    between atoms: _497  and  _498
REMARK  213  A    between atoms: _501  and  _503
REMARK  214  A    between atoms: _503  and  _504
REMARK  215  A    between atoms: _503  and  _506
REMARK  216  A    between atoms: _506  and  _507
REMARK  217  A    between atoms: _512  and  _513
REMARK  218  A    between atoms: _515  and  _517
REMARK  219  A    between atoms: _517  and  _518
REMARK  220  A    between atoms: _517  and  _520
REMARK  221  A    between atoms: _520  and  _521
REMARK                            x       y       z     vdW  Elec       q    Type
REMARK                         _______ _______ _______ _____ _____    ______ ____
ROOT
ATOM      1  C   PHE A   2      16.589  54.800  10.878  0.00  0.00    +0.241 C 
ATOM      2  N   CYS A   3      16.493  55.145  12.152  0.00  0.00    -0.296 N 
ATOM      3  H   CYS A   3      16.689  54.434  12.885  0.00  0.00    +0.150 HD
ATOM      4  O   PHE A   2      16.493  55.623   9.947  0.00  0.00    -0.273 OA
ENDROOT
BRANCH   2   5
ATOM      5  CA  CYS A   3      16.124  56.482  12.552  0.00  0.00    +0.160 C 
BRANCH   5   6
ATOM      6  C   CYS A   3      17.281  57.157  13.263  0.00  0.00    +0.242 C 
ATOM      7  O   CYS A   3      18.076  56.512  13.979  0.00  0.00    -0.273 OA
ATOM      8  N   ALA A   4      17.381  58.458  13.054  0.00  0.00    -0.297 N 
ATOM      9  H   ALA A   4      16.710  58.933  12.418  0.00  0.00    +0.150 HD
BRANCH   8  10
ATOM     10  CA  ALA A   4      18.431  59.231  13.713  0.00  0.00    +0.149 C 
ATOM     11  CB  ALA A   4      19.762  59.135  12.913  0.00  0.00    +0.031 C 
BRANCH  10  12
ATOM     12  C   ALA A   4      18.004  60.671  13.874  0.00  0.00    +0.241 C 
ATOM     13  N   GLY A   5      18.579  61.344  14.869  0.00  0.00    -0.296 N 
ATOM     14  H   GLY A   5      19.271  60.868  15.482  0.00  0.00    +0.150 HD
ATOM     15  O   ALA A   4      17.176  61.198  13.107  0.00  0.00    -0.273 OA
BRANCH  13  16
ATOM     16  CA  GLY A   5      18.248  62.732  15.104  0.00  0.00    +0.163 C 
BRANCH  16  17
ATOM     17  C   GLY A   5      17.751  62.966  16.504  0.00  0.00    +0.229 C 
ATOM     18  O   GLY A   5      18.148  62.244  17.420  0.00  0.00    -0.286 OA
ENDBRANCH  16  17
ENDBRANCH  13  16
ENDBRANCH  10  12
ENDBRANCH   8  10
ENDBRANCH   5   6
BRANCH   5  19
ATOM     19  CB  CYS A   3      14.945  56.410  13.502  0.00  0.00    +0.098 C 
ATOM     20  SG  CYS A   3      13.596  55.450  12.746  0.00  0.00    -0.080 S 
ENDBRANCH   5  19
ENDBRANCH   2   5
BRANCH   1  21
ATOM     21  CA  PHE A   2      16.840  53.338  10.601  0.00  0.00    +0.153 C 
BRANCH  21  24
ATOM     22  C   MET A   1      16.031  51.874   8.841  0.00  0.00    +0.238 C 
ATOM     23  O   MET A   1      15.940  50.903   9.589  0.00  0.00    -0.274 OA
ATOM     24  N   PHE A   2      16.583  53.019   9.203  0.00  0.00    -0.297 N 
ATOM     25  H   PHE A   2      16.841  53.711   8.470  0.00  0.00    +0.150 HD
BRANCH  22  26
ATOM     26  CA  MET A   1      15.475  51.838   7.439  0.00  0.00    +0.146 C 
BRANCH  26  27
ATOM     27  N   MET A   1      15.371  50.459   6.969  0.00  0.00    -0.238 NA
ATOM     28  H   MET A   1      14.854  49.775   7.558  0.00  0.00    +0.142 HD
ENDBRANCH  26  27
BRANCH  26  29
ATOM     29  CB  MET A   1      14.090  52.502   7.488  0.00  0.00    +0.038 C 
BRANCH  29  30
ATOM     30  CG  MET A   1      13.283  52.415   6.169  0.00  0.00    +0.060 C 
BRANCH  30  31
ATOM     31  SD  MET A   1      11.580  53.017   6.429  0.00  0.00    -0.139 S 
ATOM     32  CE  MET A   1      10.877  52.649   4.832  0.00  0.00    +0.069 C 
ENDBRANCH  30  31
ENDBRANCH  29  30
ENDBRANCH  26  29
ENDBRANCH  22  26
ENDBRANCH  21  24
BRANCH  21  33
ATOM     33  CB  PHE A   2      18.259  52.921  11.051  0.00  0.00    +0.055 C 
BRANCH  33  34
ATOM     34  CG  PHE A   2      19.355  53.774  10.502  0.00  0.00    -0.020 A 
ATOM     35  CD2 PHE A   2      19.782  54.907  11.178  0.00  0.00    -0.004 A 
ATOM     36  CE2 PHE A   2      20.820  55.687  10.648  0.00  0.00    -0.000 A 
ATOM     37  CZ  PHE A   2      21.415  55.317   9.456  0.00  0.00    -0.000 A 
ATOM     38  CE1 PHE A   2      20.984  54.211   8.775  0.00  0.00    -0.000 A 
ATOM     39  CD1 PHE A   2      19.951  53.424   9.298  0.00  0.00    -0.004 A 
ENDBRANCH  33  34
ENDBRANCH  21  33
ENDBRANCH   1  21
TORSDOF 16
REMARK  Name = ../refined-set-2016/2vwo/2vwo_pocket.pdb
REMARK  221 active torsions:
REMARK  status: ('A' for Active; 'I' for Inactive)
REMARK    1  A    between atoms: _1  and  _5
REMARK    2  A    between atoms: _5  and  _6
REMARK    3  A    between atoms: _5  and  _8
REMARK    4  A    between atoms: _8  and  _9
REMARK    5  A    between atoms: _12  and  _14
REMARK    6  A    between atoms: _14  and  _15
REMARK    7  A    between atoms: _14  and  _17
REMARK    8  A    between atoms: _20  and  _22
REMARK    9  A    between atoms: _22  and  _23
REMARK   10  A    between atoms: _22  and  _25
REMARK   11  A    between atoms: _25  and  _26
REMARK   12  A    between atoms: _31  and  _33
REMARK   13  A    between atoms: _33  and  _34
REMARK   14  A    between atoms: _33  and  _36
REMARK   15  A    between atoms: _36  and  _37
REMARK   16  A    between atoms: _37  and  _38
REMARK   17  A    between atoms: _43  and  _45
REMARK   18  A    between atoms: _45  and  _46
REMARK   19  A    between atoms: _45  and  _48
REMARK   20  A    between atoms: _48  and  _49
REMARK   21  A    between atoms: _52  and  _54
REMARK   22  A    between atoms: _54  and  _55
REMARK   23  A    between atoms: _54  and  _57
REMARK   24  A    between atoms: _57  and  _58
REMARK   25  A    between atoms: _58  and  _59
REMARK   26  A    between atoms: _59  and  _60
REMARK   27  A    between atoms: _60  and  _61
REMARK   28  A    between atoms: _65  and  _67
REMARK   29  A    between atoms: _67  and  _68
REMARK   30  A    between atoms: _67  and  _70
REMARK   31  A    between atoms: _70  and  _71
REMARK   32  A    between atoms: _71  and  _72
REMARK   33  A    between atoms: _75  and  _77
REMARK   34  A    between atoms: _77  and  _78
REMARK   35  A    between atoms: _77  and  _80
REMARK   36  A    between atoms: _80  and  _81
REMARK   37  A    between atoms: _84  and  _86
REMARK   38  A    between atoms: _86  and  _87
REMARK   39  A    between atoms: _86  and  _89
REMARK   40  A    between atoms: _89  and  _90
REMARK   41  A    between atoms: _95  and  _96
REMARK   42  A    between atoms: _98  and  _100
REMARK   43  A    between atoms: _100  and  _101
REMARK   44  A    between atoms: _100  and  _103
REMARK   45  A    between atoms: _103  and  _104
REMARK   46  A    between atoms: _107  and  _109
REMARK   47  A    between atoms: _109  and  _110
REMARK   48  A    between atoms: _109  and  _112
REMARK   49  A    between atoms: _112  and  _113
REMARK   50  A    between atoms: _116  and  _118
REMARK   51  A    between atoms: _118  and  _119
REMARK   52  A    between atoms: _118  and  _121
REMARK   53  A    between atoms: _124  and  _126
REMARK   54  A    between atoms: _126  and  _127
REMARK   55  A    between atoms: _126  and  _129
REMARK   56  A    between atoms: _129  and  _130
REMARK   57  A    between atoms: _130  and  _131
REMARK   58  A    between atoms: _131  and  _132
REMARK   59  A    between atoms: _141  and  _143
REMARK   60  A    between atoms: _143  and  _144
REMARK   61  A    between atoms: _143  and  _146
REMARK   62  A    between atoms: _146  and  _147
REMARK   63  A    between atoms: _152  and  _154
REMARK   64  A    between atoms: _154  and  _155
REMARK   65  A    between atoms: _154  and  _157
REMARK   66  A    between atoms: _157  and  _158
REMARK   67  A    between atoms: _158  and  _159
REMARK   68  A    between atoms: _162  and  _164
REMARK   69  A    between atoms: _164  and  _165
REMARK   70  A    between atoms: _164  and  _167
REMARK   71  A    between atoms: _167  and  _168
REMARK   72  A    between atoms: _168  and  _169
REMARK   73  A    between atoms: _169  and  _170
REMARK   74  A    between atoms: _170  and  _171
REMARK   75  A    between atoms: _175  and  _177
REMARK   76  A    between atoms: _177  and  _178
REMARK   77  A    between atoms: _180  and  _182
REMARK   78  A    between atoms: _182  and  _183
REMARK   79  A    between atoms: _182  and  _185
REMARK   80  A    between atoms: _188  and  _190
REMARK   81  A    between atoms: _190  and  _191
REMARK   82  A    between atoms: _190  and  _193
REMARK   83  A    between atoms: _193  and  _194
REMARK   84  A    between atoms: _196  and  _198
REMARK   85  A    between atoms: _198  and  _199
REMARK   86  A    between atoms: _198  and  _201
REMARK   87  A    between atoms: _201  and  _202
REMARK   88  A    between atoms: _204  and  _206
REMARK   89  A    between atoms: _206  and  _207
REMARK   90  A    between atoms: _206  and  _209
REMARK   91  A    between atoms: _209  and  _210
REMARK   92  A    between atoms: _216  and  _218
REMARK   93  A    between atoms: _218  and  _219
REMARK   94  A    between atoms: _218  and  _221
REMARK   95  A    between atoms: _221  and  _222
REMARK   96  A    between atoms: _225  and  _227
REMARK   97  A    between atoms: _227  and  _228
REMARK   98  A    between atoms: _227  and  _230
REMARK   99  A    between atoms: _230  and  _231
REMARK  100  A    between atoms: _234  and  _236
REMARK  101  A    between atoms: _236  and  _237
REMARK  102  A    between atoms: _236  and  _239
REMARK  103  A    between atoms: _239  and  _240
REMARK  104  A    between atoms: _243  and  _245
REMARK  105  A    between atoms: _245  and  _246
REMARK  106  A    between atoms: _245  and  _248
REMARK  107  A    between atoms: _248  and  _249
REMARK  108  A    between atoms: _249  and  _250
REMARK  109  A    between atoms: _252  and  _254
REMARK  110  A    between atoms: _254  and  _255
REMARK  111  A    between atoms: _254  and  _257
REMARK  112  A    between atoms: _257  and  _258
REMARK  113  A    between atoms: _264  and  _266
REMARK  114  A    between atoms: _266  and  _267
REMARK  115  A    between atoms: _266  and  _269
REMARK  116  A    between atoms: _271  and  _273
REMARK  117  A    between atoms: _273  and  _274
REMARK  118  A    between atoms: _277  and  _279
REMARK  119  A    between atoms: _279  and  _280
REMARK  120  A    between atoms: _282  and  _284
REMARK  121  A    between atoms: _284  and  _285
REMARK  122  A    between atoms: _284  and  _287
REMARK  123  A    between atoms: _287  and  _288
REMARK  124  A    between atoms: _288  and  _289
REMARK  125  A    between atoms: _292  and  _294
REMARK  126  A    between atoms: _294  and  _295
REMARK  127  A    between atoms: _294  and  _297
REMARK  128  A    between atoms: _297  and  _298
REMARK  129  A    between atoms: _301  and  _303
REMARK  130  A    between atoms: _303  and  _304
REMARK  131  A    between atoms: _307  and  _309
REMARK  132  A    between atoms: _309  and  _310
REMARK  133  A    between atoms: _309  and  _312
REMARK  134  A    between atoms: _312  and  _313
REMARK  135  A    between atoms: _313  and  _436
REMARK  136  A    between atoms: _314  and  _316
REMARK  137  A    between atoms: _316  and  _317
REMARK  138  A    between atoms: _316  and  _319
REMARK  139  A    between atoms: _319  and  _320
REMARK  140  A    between atoms: _320  and  _321
REMARK  141  A    between atoms: _326  and  _328
REMARK  142  A    between atoms: _328  and  _329
REMARK  143  A    between atoms: _331  and  _333
REMARK  144  A    between atoms: _333  and  _334
REMARK  145  A    between atoms: _333  and  _336
REMARK  146  A    between atoms: _336  and  _337
REMARK  147  A    between atoms: _340  and  _342
REMARK  148  A    between atoms: _342  and  _343
REMARK  149  A    between atoms: _342  and  _345
REMARK  150  A    between atoms: _345  and  _346
REMARK  151  A    between atoms: _348  and  _350
REMARK  152  A    between atoms: _350  and  _351
REMARK  153  A    between atoms: _353  and  _355
REMARK  154  A    between atoms: _355  and  _356
REMARK  155  A    between atoms: _358  and  _360
REMARK  156  A    between atoms: _360  and  _361
REMARK  157  A    between atoms: _360  and  _363
REMARK  158  A    between atoms: _363  and  _364
REMARK  159  A    between atoms: _369  and  _371
REMARK  160  A    between atoms: _371  and  _372
REMARK  161  A    between atoms: _371  and  _374
REMARK  162  A    between atoms: _374  and  _375
REMARK  163  A    between atoms: _378  and  _380
REMARK  164  A    between atoms: _380  and  _381
REMARK  165  A    between atoms: _380  and  _383
REMARK  166  A    between atoms: _386  and  _388
REMARK  167  A    between atoms: _388  and  _389
REMARK  168  A    between atoms: _388  and  _391
REMARK  169  A    between atoms: _391  and  _392
REMARK  170  A    between atoms: _394  and  _396
REMARK  171  A    between atoms: _396  and  _397
REMARK  172  A    between atoms: _396  and  _399
REMARK  173  A    between atoms: _399  and  _400
REMARK  174  A    between atoms: _410  and  _412
REMARK  175  A    between atoms: _412  and  _413
REMARK  176  A    between atoms: _415  and  _417
REMARK  177  A    between atoms: _417  and  _418
REMARK  178  A    between atoms: _417  and  _420
REMARK  179  A    between atoms: _420  and  _421
REMARK  180  A    between atoms: _421  and  _422
REMARK  181  A    between atoms: _425  and  _427
REMARK  182  A    between atoms: _427  and  _428
REMARK  183  A    between atoms: _430  and  _432
REMARK  184  A    between atoms: _432  and  _433
REMARK  185  A    between atoms: _432  and  _435
REMARK  186  A    between atoms: _435  and  _436
REMARK  187  A    between atoms: _437  and  _439
REMARK  188  A    between atoms: _439  and  _440
REMARK  189  A    between atoms: _443  and  _445
REMARK  190  A    between atoms: _445  and  _446
REMARK  191  A    between atoms: _445  and  _448
REMARK  192  A    between atoms: _448  and  _449
REMARK  193  A    between atoms: _449  and  _450
REMARK  194  A    between atoms: _450  and  _451
REMARK  195  A    between atoms: _460  and  _462
REMARK  196  A    between atoms: _462  and  _463
REMARK  197  A    between atoms: _462  and  _465
REMARK  198  A    between atoms: _465  and  _466
REMARK  199  A    between atoms: _466  and  _467
REMARK  200  A    between atoms: _467  and  _468
REMARK  201  A    between atoms: _468  and  _469
REMARK  202  A    between atoms: _473  and  _475
REMARK  203  A    between atoms: _475  and  _476
REMARK  204  A    between atoms: _475  and  _478
REMARK  205  A    between atoms: _478  and  _479
REMARK  206  A    between atoms: _484  and  _485
REMARK  207  A    between atoms: _487  and  _489
REMARK  208  A    between atoms: _489  and  _490
REMARK  209  A    between atoms: _492  and  _494
REMARK  210  A    between atoms: _494  and  _495
REMARK  211  A    between atoms: _494  and  _497
REMARK  212  A    between atoms: _497  and  _498
REMARK  213  A    between atoms: _501  and  _503
REMARK  214  A    between atoms: _503  and  _504
REMARK  215  A    between atoms: _503  and  _506
REMARK  216  A    between atoms: _506  and  _507
REMARK  217  A    between atoms: _512  and  _513
REMARK  218  A    between atoms: _515  and  _517
REMARK  219  A    between atoms: _517  and  _518
REMARK  220  A    between atoms: _517  and  _520
REMARK  221  A    between atoms: _520  and  _521
REMARK                            x       y       z     vdW  Elec       q    Type
REMARK                         _______ _______ _______ _____ _____    ______ ____
ROOT
ATOM      1  CA  SER A   8      12.083  68.754   9.202  0.00  0.00    +0.160 C 
ENDROOT
BRANCH   1   2
ATOM      2  C   SER A   8      12.192  69.251  10.636  0.00  0.00    +0.242 C 
ATOM      3  N   GLY A   9      12.888  68.495  11.477  0.00  0.00    -0.297 N 
ATOM      4  H   GLY A   9      13.258  67.582  11.142  0.00  0.00    +0.150 HD
ATOM      5  O   SER A   8      11.648  70.302  10.970  0.00  0.00    -0.273 OA
BRANCH   3   6
ATOM      6  CA  GLY A   9      13.154  68.901  12.860  0.00  0.00    +0.149 C 
ATOM      7  CB  GLY A   9      14.039  70.201  12.897  0.00  0.00    +0.031 C 
BRANCH   6   8
ATOM      8  C   GLY A   9      11.868  69.114  13.637  0.00  0.00    +0.241 C 
ATOM      9  O   GLY A   9      11.842  69.928  14.573  0.00  0.00    -0.273 OA
ATOM     10  N   GLY A  10      10.805  68.398  13.265  0.00  0.00    -0.298 N 
ATOM     11  H   GLY A  10      10.859  67.779  12.431  0.00  0.00    +0.150 HD
BRANCH  10  12
ATOM     12  CA  GLY A  10       9.557  68.488  14.039  0.00  0.00    +0.137 C 
BRANCH  12  13
ATOM     13  C   GLY A  10       9.690  67.824  15.406  0.00  0.00    +0.227 C 
ATOM     14  O   GLY A  10      10.386  66.800  15.594  0.00  0.00    -0.286 OA
ENDBRANCH  12  13
BRANCH  12  15
ATOM     15  CB  GLY A  10       8.353  67.914  13.289  0.00  0.00    +0.031 C 
BRANCH  15  16
ATOM     16  CG  GLY A  10       8.013  68.707  12.046  0.00  0.00    +0.045 C 
BRANCH  16  17
ATOM     17  CD  GLY A  10       6.684  68.270  11.488  0.00  0.00    +0.174 C 
BRANCH  17  18
ATOM     18  NE  GLY A  10       6.337  68.964  10.252  0.00  0.00    -0.265 N 
ATOM     19  HE  GLY A  10       7.006  69.668   9.879  0.00  0.00    +0.259 HD
ATOM     20  CZ  GLY A  10       5.211  68.745   9.576  0.00  0.00    +0.342 C 
ATOM     21  NH2 GLY A  10       4.328  67.869  10.036  0.00  0.00    -0.292 N 
ATOM     22 HH21 GLY A  10       4.517  67.357  10.921  0.00  0.00    +0.255 HD
ATOM     23 HH22 GLY A  10       3.447  67.694   9.512  0.00  0.00    +0.255 HD
ATOM     24  NH1 GLY A  10       4.959  69.415   8.454  0.00  0.00    -0.292 N 
ATOM     25 HH11 GLY A  10       5.643  70.114   8.101  0.00  0.00    +0.255 HD
ATOM     26 HH12 GLY A  10       4.078  69.240   7.930  0.00  0.00    +0.255 HD
ENDBRANCH  17  18
ENDBRANCH  16  17
ENDBRANCH  15  16
ENDBRANCH  12  15
ENDBRANCH  10  12
ENDBRANCH   6   8
ENDBRANCH   3   6
ENDBRANCH   1   2
BRANCH   1  27
ATOM     27  N   SER A   8      10.673  68.688   8.794  0.00  0.00    -0.296 N 
ATOM     28  H   SER A   8      10.038  69.461   9.076  0.00  0.00    +0.150 HD
ATOM     29  C   ASP A   7      10.173  67.684   8.080  0.00  0.00    +0.243 C 
ATOM     30  O   ASP A   7      10.867  66.786   7.596  0.00  0.00    -0.273 OA
BRANCH  29  31
ATOM     31  CA  ASP A   7       8.674  67.727   7.831  0.00  0.00    +0.176 C 
BRANCH  31  32
ATOM     32  N   ASP A   7       8.133  66.386   7.672  0.00  0.00    -0.295 N 
ATOM     33  C   GLY A   6       8.009  65.575   8.714  0.00  0.00    +0.241 C 
ATOM     34  O   GLY A   6       8.152  65.963   9.870  0.00  0.00    -0.273 OA
ATOM     35  H   ASP A   7       7.840  66.059   6.729  0.00  0.00    +0.150 HD
BRANCH  33  36
ATOM     36  CA  GLY A   6       7.695  64.127   8.411  0.00  0.00    +0.149 C 
BRANCH  36  37
ATOM     37  N   GLY A   6       8.960  63.401   8.337  0.00  0.00    -0.297 N 
ATOM     38  H   GLY A   6       9.289  62.873   9.171  0.00  0.00    +0.150 HD
ATOM     39  C   GLN A   5       9.704  63.395   7.234  0.00  0.00    +0.243 C 
ATOM     40  O   GLN A   5       9.315  63.816   6.142  0.00  0.00    -0.273 OA
BRANCH  39  41
ATOM     41  CA  GLN A   5      11.046  62.729   7.369  0.00  0.00    +0.176 C 
BRANCH  41  42
ATOM     42  N   GLN A   5      11.478  62.239   6.070  0.00  0.00    -0.295 N 
ATOM     43  C   TRP A   4      12.423  61.328   5.919  0.00  0.00    +0.241 C 
ATOM     44  O   TRP A   4      13.061  60.836   6.852  0.00  0.00    -0.273 OA
ATOM     45  H   GLN A   5      11.021  62.624   5.219  0.00  0.00    +0.150 HD
BRANCH  43  46
ATOM     46  CA  TRP A   4      12.667  60.885   4.487  0.00  0.00    +0.153 C 
BRANCH  46  47
ATOM     47  N   TRP A   4      13.890  60.096   4.320  0.00  0.00    -0.297 N 
ATOM     48  H   TRP A   4      14.364  59.671   5.143  0.00  0.00    +0.150 HD
ATOM     49  C   SER A   3      14.381  59.934   3.097  0.00  0.00    +0.243 C 
ATOM     50  O   SER A   3      13.863  60.476   2.117  0.00  0.00    -0.273 OA
BRANCH  49  51
ATOM     51  CA  SER A   3      15.620  59.079   2.930  0.00  0.00    +0.178 C 
BRANCH  51  52
ATOM     52  N   SER A   3      16.783  59.601   3.655  0.00  0.00    -0.295 N 
ATOM     53  H   SER A   3      16.762  59.663   4.693  0.00  0.00    +0.150 HD
ATOM     54  C   VAL A   2      17.870  59.998   2.985  0.00  0.00    +0.241 C 
ATOM     55  O   VAL A   2      17.897  60.065   1.768  0.00  0.00    -0.273 OA
BRANCH  54  56
ATOM     56  CA  VAL A   2      19.108  60.362   3.797  0.00  0.00    +0.148 C 
BRANCH  56  57
ATOM     57  N   VAL A   2      20.222  59.507   3.350  0.00  0.00    -0.297 N 
ATOM     58  C   ILE A   1      20.089  58.187   3.409  0.00  0.00    +0.238 C 
ATOM     59  O   ILE A   1      19.070  57.656   3.874  0.00  0.00    -0.274 OA
ATOM     60  H   VAL A   2      21.101  59.932   2.993  0.00  0.00    +0.150 HD
BRANCH  58  61
ATOM     61  CA  ILE A   1      21.238  57.334   2.869  0.00  0.00    +0.145 C 
BRANCH  61  62
ATOM     62  N   ILE A   1      21.582  56.421   3.948  0.00  0.00    -0.238 NA
ATOM     63  H   ILE A   1      20.864  55.741   4.270  0.00  0.00    +0.142 HD
ENDBRANCH  61  62
BRANCH  61  64
ATOM     64  CB  ILE A   1      20.776  56.566   1.619  0.00  0.00    +0.025 C 
ATOM     65  CG2 ILE A   1      20.358  57.572   0.486  0.00  0.00    +0.002 C 
BRANCH  64  66
ATOM     66  CG1 ILE A   1      21.855  55.594   1.107  0.00  0.00    +0.002 C 
ATOM     67  CD1 ILE A   1      21.332  54.565   0.089  0.00  0.00    +0.000 C 
ENDBRANCH  64  66
ENDBRANCH  61  64
ENDBRANCH  58  61
ENDBRANCH  56  57
BRANCH  56  68
ATOM     68  CB  VAL A   2      19.425  61.850   3.553  0.00  0.00    +0.027 C 
ATOM     69  CG2 VAL A   2      20.714  62.256   4.277  0.00  0.00    +0.002 C 
ATOM     70  CG1 VAL A   2      18.276  62.731   3.971  0.00  0.00    +0.002 C 
ENDBRANCH  56  68
ENDBRANCH  54  56
ENDBRANCH  51  52
BRANCH  51  71
ATOM     71  CB  SER A   3      15.349  57.616   3.328  0.00  0.00    +0.166 C 
BRANCH  71  72
ATOM     72  OG  SER A   3      14.295  57.095   2.511  0.00  0.00    -0.380 OA
ATOM     73  H   SER A   3      14.565  57.137   1.559  0.00  0.00    +0.211 HD
ENDBRANCH  71  72
ENDBRANCH  51  71
ENDBRANCH  49  51
ENDBRANCH  46  47
BRANCH  46  74
ATOM     74  CB  TRP A   4      11.424  60.108   3.969  0.00  0.00    +0.057 C 
BRANCH  74  75
ATOM     75  CG  TRP A   4      11.139  58.780   4.690  0.00  0.00    -0.002 A 
ATOM     76  CD2 TRP A   4      10.236  58.531   5.792  0.00  0.00    +0.013 A 
ATOM     77  CE3 TRP A   4       9.403  59.342   6.578  0.00  0.00    +0.001 A 
ATOM     78  CZ3 TRP A   4       8.666  58.737   7.607  0.00  0.00    +0.000 A 
ATOM     79  CH2 TRP A   4       8.739  57.364   7.818  0.00  0.00    +0.001 A 
ATOM     80  CZ2 TRP A   4       9.565  56.562   7.086  0.00  0.00    +0.017 A 
ATOM     81  CE2 TRP A   4      10.298  57.146   6.074  0.00  0.00    +0.056 A 
ATOM     82  NE1 TRP A   4      11.165  56.573   5.182  0.00  0.00    -0.352 N 
ATOM     83  HE1 TRP A   4      11.391  55.560   5.122  0.00  0.00    +0.166 HD
ATOM     84  CD1 TRP A   4      11.693  57.571   4.370  0.00  0.00    +0.068 A 
ENDBRANCH  74  75
ENDBRANCH  46  74
ENDBRANCH  43  46
ENDBRANCH  41  42
ENDBRANCH  39  41
ENDBRANCH  36  37
BRANCH  36  85
ATOM     85  CB  GLY A   6       6.797  63.504   9.492  0.00  0.00    +0.041 C 
BRANCH  85  86
ATOM     86  CG  GLY A   6       6.469  62.067   9.140  0.00  0.00    +0.116 C 
BRANCH  86  87
ATOM     87  CD  GLY A   6       5.458  61.453  10.097  0.00  0.00    +0.365 C 
ATOM     88  OE2 GLY A   6       5.776  60.409  10.699  0.00  0.00    -0.246 OA
ATOM     89  OE1 GLY A   6       4.350  62.012  10.238  0.00  0.00    -0.246 OA
ENDBRANCH  86  87
ENDBRANCH  85  86
ENDBRANCH  36  85
ENDBRANCH  33  36
ENDBRANCH  31  32
ENDBRANCH  29  31
ENDBRANCH   1  27
BRANCH   1  90
ATOM     90  CB  SER A   8      12.845  69.749   8.317  0.00  0.00    +0.098 C 
BRANCH  90  91
ATOM     91  SG  SER A   8      12.645  69.437   6.598  0.00  0.00    -0.080 S 
BRANCH  91  92
ATOM     92  SG  TRP A   4      13.923  70.777   5.729  0.00  0.00    -0.080 S 
BRANCH  92  93
ATOM     93  CB  TRP A   4      15.572  69.957   5.753  0.00  0.00    +0.098 C 
BRANCH  93  94
ATOM     94  CA  TRP A   4      15.627  68.482   5.339  0.00  0.00    +0.160 C 
BRANCH  94  97
ATOM     95  C   SER A   3      16.864  67.417   7.132  0.00  0.00    +0.241 C 
ATOM     96  O   SER A   3      15.867  67.474   7.863  0.00  0.00    -0.273 OA
ATOM     97  N   TRP A   4      16.831  67.850   5.874  0.00  0.00    -0.296 N 
ATOM     98  H   TRP A   4      17.668  67.738   5.267  0.00  0.00    +0.150 HD
BRANCH  95  99
ATOM     99  CA  SER A   3      18.178  66.838   7.646  0.00  0.00    +0.149 C 
ATOM    100  CB  SER A   3      18.490  65.511   6.965  0.00  0.00    +0.031 C 
BRANCH  99 103
ATOM    101  C   VAL A   2      18.110  67.719   9.895  0.00  0.00    +0.241 C 
ATOM    102  O   VAL A   2      18.530  68.828   9.526  0.00  0.00    -0.273 OA
ATOM    103  N   SER A   3      18.049  66.663   9.092  0.00  0.00    -0.297 N 
ATOM    104  H   SER A   3      17.910  65.713   9.491  0.00  0.00    +0.150 HD
BRANCH 101 105
ATOM    105  CA  VAL A   2      17.628  67.498  11.323  0.00  0.00    +0.160 C 
BRANCH 105 108
ATOM    106  C   ILE A   1      17.910  68.665  13.432  0.00  0.00    +0.238 C 
ATOM    107  O   ILE A   1      17.485  67.700  14.073  0.00  0.00    -0.274 OA
ATOM    108  N   VAL A   2      18.074  68.641  12.108  0.00  0.00    -0.297 N 
ATOM    109  H   VAL A   2      18.525  69.448  11.631  0.00  0.00    +0.150 HD
BRANCH 106 110
ATOM    110  CA  ILE A   1      18.334  69.945  14.140  0.00  0.00    +0.145 C 
BRANCH 110 111
ATOM    111  N   ILE A   1      17.287  70.356  15.062  0.00  0.00    -0.238 NA
ATOM    112  H   ILE A   1      16.759  69.615  15.565  0.00  0.00    +0.142 HD
ENDBRANCH 110 111
BRANCH 110 113
ATOM    113  CB  ILE A   1      19.633  69.698  14.886  0.00  0.00    +0.038 C 
BRANCH 113 114
ATOM    114  CG  ILE A   1      20.160  70.914  15.630  0.00  0.00    +0.116 C 
BRANCH 114 115
ATOM    115  CD  ILE A   1      21.600  70.720  16.023  0.00  0.00    +0.365 C 
ATOM    116  OE2 ILE A   1      21.902  69.738  16.737  0.00  0.00    -0.246 OA
ATOM    117  OE1 ILE A   1      22.441  71.543  15.595  0.00  0.00    -0.246 OA
ENDBRANCH 114 115
ENDBRANCH 113 114
ENDBRANCH 110 113
ENDBRANCH 106 110
ENDBRANCH 105 108
BRANCH 105 118
ATOM    118  CB  VAL A   2      16.098  67.480  11.308  0.00  0.00    +0.143 C 
BRANCH 118 119
ATOM    119  CG  VAL A   2      15.499  66.137  10.890  0.00  0.00    +0.367 C 
ATOM    120  OD2 VAL A   2      14.248  66.084  10.807  0.00  0.00    -0.246 OA
ATOM    121  OD1 VAL A   2      16.229  65.153  10.638  0.00  0.00    -0.246 OA
ENDBRANCH 118 119
ENDBRANCH 105 118
ENDBRANCH 101 105
ENDBRANCH  99 103
ENDBRANCH  95  99
ENDBRANCH  94  97
BRANCH  94 122
ATOM    122  C   TRP A   4      15.541  68.334   3.815  0.00  0.00    +0.242 C 
ATOM    123  N   GLN A   5      14.508  68.933   3.241  0.00  0.00    -0.297 N 
ATOM    124  H   GLN A   5      13.842  69.480   3.823  0.00  0.00    +0.150 HD
ATOM    125  O   TRP A   4      16.383  67.676   3.184  0.00  0.00    -0.273 OA
BRANCH 123 126
ATOM    126  CA  GLN A   5      14.295  68.833   1.799  0.00  0.00    +0.149 C 
BRANCH 126 127
ATOM    127  C   GLN A   5      15.554  69.261   1.067  0.00  0.00    +0.241 C 
ATOM    128  O   GLN A   5      16.093  70.346   1.316  0.00  0.00    -0.273 OA
ATOM    129  N   GLY A   6      15.994  68.430   0.127  0.00  0.00    -0.295 N 
ATOM    130  H   GLY A   6      15.455  67.564  -0.076  0.00  0.00    +0.150 HD
BRANCH 129 131
ATOM    131  CA  GLY A   6      17.207  68.700  -0.624  0.00  0.00    +0.176 C 
BRANCH 131 132
ATOM    132  C   GLY A   6      18.409  67.914  -0.129  0.00  0.00    +0.243 C 
ATOM    133  N   ASP A   7      18.331  67.393   1.097  0.00  0.00    -0.296 N 
ATOM    134  H   ASP A   7      17.498  67.602   1.684  0.00  0.00    +0.150 HD
ATOM    135  O   GLY A   6      19.380  67.755  -0.853  0.00  0.00    -0.273 OA
BRANCH 133 136
ATOM    136  CA  ASP A   7      19.380  66.540   1.634  0.00  0.00    +0.160 C 
BRANCH 136 137
ATOM    137  C   ASP A   7      19.224  65.067   1.264  0.00  0.00    +0.241 C 
ATOM    138  O   ASP A   7      20.194  64.305   1.373  0.00  0.00    -0.273 OA
ATOM    139  N   SER A   8      18.013  64.681   0.844  0.00  0.00    -0.295 N 
ATOM    140  H   SER A   8      17.258  65.394   0.781  0.00  0.00    +0.150 HD
BRANCH 139 141
ATOM    141  CA  SER A   8      17.701  63.288   0.466  0.00  0.00    +0.178 C 
BRANCH 141 142
ATOM    142  C   SER A   8      18.750  62.735  -0.469  0.00  0.00    +0.243 C 
ATOM    143  N   GLY A   9      19.116  61.476  -0.271  0.00  0.00    -0.295 N 
ATOM    144  H   GLY A   9      18.712  60.935   0.520  0.00  0.00    +0.150 HD
ATOM    145  O   SER A   8      19.217  63.442  -1.371  0.00  0.00    -0.273 OA
BRANCH 143 146
ATOM    146  CA  GLY A   9      20.089  60.848  -1.167  0.00  0.00    +0.176 C 
BRANCH 146 147
ATOM    147  C   GLY A   9      21.502  60.970  -0.654  0.00  0.00    +0.243 C 
ATOM    148  N   GLY A  10      21.718  61.922   0.241  0.00  0.00    -0.296 N 
ATOM    149  H   GLY A  10      20.905  62.457   0.607  0.00  0.00    +0.150 HD
ATOM    150  O   GLY A   9      22.389  60.218  -1.067  0.00  0.00    -0.273 OA
BRANCH 148 151
ATOM    151  CA  GLY A  10      23.061  62.253   0.737  0.00  0.00    +0.163 C 
BRANCH 151 152
ATOM    152  C   GLY A  10      23.588  61.302   1.790  0.00  0.00    +0.229 C 
ATOM    153  O   GLY A  10      22.907  60.345   2.185  0.00  0.00    -0.286 OA
ENDBRANCH 151 152
ENDBRANCH 148 151
ENDBRANCH 146 147
ENDBRANCH 143 146
ENDBRANCH 141 142
BRANCH 141 154
ATOM    154  CB  SER A   8      16.364  63.200  -0.275  0.00  0.00    +0.166 C 
BRANCH 154 155
ATOM    155  OG  SER A   8      15.276  63.178   0.624  0.00  0.00    -0.380 OA
ATOM    156  H   SER A   8      15.281  64.006   1.166  0.00  0.00    +0.211 HD
ENDBRANCH 154 155
ENDBRANCH 141 154
ENDBRANCH 139 141
ENDBRANCH 136 137
BRANCH 136 157
ATOM    157  CB  ASP A   7      19.426  66.629   3.177  0.00  0.00    +0.143 C 
BRANCH 157 158
ATOM    158  CG  ASP A   7      19.863  67.992   3.661  0.00  0.00    +0.367 C 
ATOM    159  OD2 ASP A   7      19.248  68.517   4.592  0.00  0.00    -0.246 OA
ATOM    160  OD1 ASP A   7      20.830  68.549   3.085  0.00  0.00    -0.246 OA
ENDBRANCH 157 158
ENDBRANCH 136 157
ENDBRANCH 133 136
ENDBRANCH 131 132
ENDBRANCH 129 131
ENDBRANCH 126 127
BRANCH 126 161
ATOM    161  CB  GLN A   5      13.153  69.756   1.369  0.00  0.00    +0.039 C 
BRANCH 161 162
ATOM    162  CG  GLN A   5      12.848  69.657  -0.115  0.00  0.00    +0.087 C 
BRANCH 162 163
ATOM    163  CD  GLN A   5      12.306  68.303  -0.494  0.00  0.00    +0.219 C 
ATOM    164  NE2 GLN A   5      11.048  68.048  -0.143  0.00  0.00    -0.329 N 
ATOM    165 HE21 GLN A   5      10.493  68.768   0.363  0.00  0.00    +0.145 HD
ATOM    166 HE22 GLN A   5      10.620  67.129  -0.375  0.00  0.00    +0.145 HD
ATOM    167  OE1 GLN A   5      13.012  67.484  -1.097  0.00  0.00    -0.275 OA
ENDBRANCH 162 163
ENDBRANCH 161 162
ENDBRANCH 126 161
ENDBRANCH 123 126
ENDBRANCH  94 122
ENDBRANCH  93  94
ENDBRANCH  92  93
ENDBRANCH  91  92
ENDBRANCH  90  91
ENDBRANCH   1  90
TORSDOF 71
REMARK  Name = ../refined-set-2016/2vwo/2vwo_pocket.pdb
REMARK  221 active torsions:
REMARK  status: ('A' for Active; 'I' for Inactive)
REMARK    1  A    between atoms: _1  and  _5
REMARK    2  A    between atoms: _5  and  _6
REMARK    3  A    between atoms: _5  and  _8
REMARK    4  A    between atoms: _8  and  _9
REMARK    5  A    between atoms: _12  and  _14
REMARK    6  A    between atoms: _14  and  _15
REMARK    7  A    between atoms: _14  and  _17
REMARK    8  A    between atoms: _20  and  _22
REMARK    9  A    between atoms: _22  and  _23
REMARK   10  A    between atoms: _22  and  _25
REMARK   11  A    between atoms: _25  and  _26
REMARK   12  A    between atoms: _31  and  _33
REMARK   13  A    between atoms: _33  and  _34
REMARK   14  A    between atoms: _33  and  _36
REMARK   15  A    between atoms: _36  and  _37
REMARK   16  A    between atoms: _37  and  _38
REMARK   17  A    between atoms: _43  and  _45
REMARK   18  A    between atoms: _45  and  _46
REMARK   19  A    between atoms: _45  and  _48
REMARK   20  A    between atoms: _48  and  _49
REMARK   21  A    between atoms: _52  and  _54
REMARK   22  A    between atoms: _54  and  _55
REMARK   23  A    between atoms: _54  and  _57
REMARK   24  A    between atoms: _57  and  _58
REMARK   25  A    between atoms: _58  and  _59
REMARK   26  A    between atoms: _59  and  _60
REMARK   27  A    between atoms: _60  and  _61
REMARK   28  A    between atoms: _65  and  _67
REMARK   29  A    between atoms: _67  and  _68
REMARK   30  A    between atoms: _67  and  _70
REMARK   31  A    between atoms: _70  and  _71
REMARK   32  A    between atoms: _71  and  _72
REMARK   33  A    between atoms: _75  and  _77
REMARK   34  A    between atoms: _77  and  _78
REMARK   35  A    between atoms: _77  and  _80
REMARK   36  A    between atoms: _80  and  _81
REMARK   37  A    between atoms: _84  and  _86
REMARK   38  A    between atoms: _86  and  _87
REMARK   39  A    between atoms: _86  and  _89
REMARK   40  A    between atoms: _89  and  _90
REMARK   41  A    between atoms: _95  and  _96
REMARK   42  A    between atoms: _98  and  _100
REMARK   43  A    between atoms: _100  and  _101
REMARK   44  A    between atoms: _100  and  _103
REMARK   45  A    between atoms: _103  and  _104
REMARK   46  A    between atoms: _107  and  _109
REMARK   47  A    between atoms: _109  and  _110
REMARK   48  A    between atoms: _109  and  _112
REMARK   49  A    between atoms: _112  and  _113
REMARK   50  A    between atoms: _116  and  _118
REMARK   51  A    between atoms: _118  and  _119
REMARK   52  A    between atoms: _118  and  _121
REMARK   53  A    between atoms: _124  and  _126
REMARK   54  A    between atoms: _126  and  _127
REMARK   55  A    between atoms: _126  and  _129
REMARK   56  A    between atoms: _129  and  _130
REMARK   57  A    between atoms: _130  and  _131
REMARK   58  A    between atoms: _131  and  _132
REMARK   59  A    between atoms: _141  and  _143
REMARK   60  A    between atoms: _143  and  _144
REMARK   61  A    between atoms: _143  and  _146
REMARK   62  A    between atoms: _146  and  _147
REMARK   63  A    between atoms: _152  and  _154
REMARK   64  A    between atoms: _154  and  _155
REMARK   65  A    between atoms: _154  and  _157
REMARK   66  A    between atoms: _157  and  _158
REMARK   67  A    between atoms: _158  and  _159
REMARK   68  A    between atoms: _162  and  _164
REMARK   69  A    between atoms: _164  and  _165
REMARK   70  A    between atoms: _164  and  _167
REMARK   71  A    between atoms: _167  and  _168
REMARK   72  A    between atoms: _168  and  _169
REMARK   73  A    between atoms: _169  and  _170
REMARK   74  A    between atoms: _170  and  _171
REMARK   75  A    between atoms: _175  and  _177
REMARK   76  A    between atoms: _177  and  _178
REMARK   77  A    between atoms: _180  and  _182
REMARK   78  A    between atoms: _182  and  _183
REMARK   79  A    between atoms: _182  and  _185
REMARK   80  A    between atoms: _188  and  _190
REMARK   81  A    between atoms: _190  and  _191
REMARK   82  A    between atoms: _190  and  _193
REMARK   83  A    between atoms: _193  and  _194
REMARK   84  A    between atoms: _196  and  _198
REMARK   85  A    between atoms: _198  and  _199
REMARK   86  A    between atoms: _198  and  _201
REMARK   87  A    between atoms: _201  and  _202
REMARK   88  A    between atoms: _204  and  _206
REMARK   89  A    between atoms: _206  and  _207
REMARK   90  A    between atoms: _206  and  _209
REMARK   91  A    between atoms: _209  and  _210
REMARK   92  A    between atoms: _216  and  _218
REMARK   93  A    between atoms: _218  and  _219
REMARK   94  A    between atoms: _218  and  _221
REMARK   95  A    between atoms: _221  and  _222
REMARK   96  A    between atoms: _225  and  _227
REMARK   97  A    between atoms: _227  and  _228
REMARK   98  A    between atoms: _227  and  _230
REMARK   99  A    between atoms: _230  and  _231
REMARK  100  A    between atoms: _234  and  _236
REMARK  101  A    between atoms: _236  and  _237
REMARK  102  A    between atoms: _236  and  _239
REMARK  103  A    between atoms: _239  and  _240
REMARK  104  A    between atoms: _243  and  _245
REMARK  105  A    between atoms: _245  and  _246
REMARK  106  A    between atoms: _245  and  _248
REMARK  107  A    between atoms: _248  and  _249
REMARK  108  A    between atoms: _249  and  _250
REMARK  109  A    between atoms: _252  and  _254
REMARK  110  A    between atoms: _254  and  _255
REMARK  111  A    between atoms: _254  and  _257
REMARK  112  A    between atoms: _257  and  _258
REMARK  113  A    between atoms: _264  and  _266
REMARK  114  A    between atoms: _266  and  _267
REMARK  115  A    between atoms: _266  and  _269
REMARK  116  A    between atoms: _271  and  _273
REMARK  117  A    between atoms: _273  and  _274
REMARK  118  A    between atoms: _277  and  _279
REMARK  119  A    between atoms: _279  and  _280
REMARK  120  A    between atoms: _282  and  _284
REMARK  121  A    between atoms: _284  and  _285
REMARK  122  A    between atoms: _284  and  _287
REMARK  123  A    between atoms: _287  and  _288
REMARK  124  A    between atoms: _288  and  _289
REMARK  125  A    between atoms: _292  and  _294
REMARK  126  A    between atoms: _294  and  _295
REMARK  127  A    between atoms: _294  and  _297
REMARK  128  A    between atoms: _297  and  _298
REMARK  129  A    between atoms: _301  and  _303
REMARK  130  A    between atoms: _303  and  _304
REMARK  131  A    between atoms: _307  and  _309
REMARK  132  A    between atoms: _309  and  _310
REMARK  133  A    between atoms: _309  and  _312
REMARK  134  A    between atoms: _312  and  _313
REMARK  135  A    between atoms: _313  and  _436
REMARK  136  A    between atoms: _314  and  _316
REMARK  137  A    between atoms: _316  and  _317
REMARK  138  A    between atoms: _316  and  _319
REMARK  139  A    between atoms: _319  and  _320
REMARK  140  A    between atoms: _320  and  _321
REMARK  141  A    between atoms: _326  and  _328
REMARK  142  A    between atoms: _328  and  _329
REMARK  143  A    between atoms: _331  and  _333
REMARK  144  A    between atoms: _333  and  _334
REMARK  145  A    between atoms: _333  and  _336
REMARK  146  A    between atoms: _336  and  _337
REMARK  147  A    between atoms: _340  and  _342
REMARK  148  A    between atoms: _342  and  _343
REMARK  149  A    between atoms: _342  and  _345
REMARK  150  A    between atoms: _345  and  _346
REMARK  151  A    between atoms: _348  and  _350
REMARK  152  A    between atoms: _350  and  _351
REMARK  153  A    between atoms: _353  and  _355
REMARK  154  A    between atoms: _355  and  _356
REMARK  155  A    between atoms: _358  and  _360
REMARK  156  A    between atoms: _360  and  _361
REMARK  157  A    between atoms: _360  and  _363
REMARK  158  A    between atoms: _363  and  _364
REMARK  159  A    between atoms: _369  and  _371
REMARK  160  A    between atoms: _371  and  _372
REMARK  161  A    between atoms: _371  and  _374
REMARK  162  A    between atoms: _374  and  _375
REMARK  163  A    between atoms: _378  and  _380
REMARK  164  A    between atoms: _380  and  _381
REMARK  165  A    between atoms: _380  and  _383
REMARK  166  A    between atoms: _386  and  _388
REMARK  167  A    between atoms: _388  and  _389
REMARK  168  A    between atoms: _388  and  _391
REMARK  169  A    between atoms: _391  and  _392
REMARK  170  A    between atoms: _394  and  _396
REMARK  171  A    between atoms: _396  and  _397
REMARK  172  A    between atoms: _396  and  _399
REMARK  173  A    between atoms: _399  and  _400
REMARK  174  A    between atoms: _410  and  _412
REMARK  175  A    between atoms: _412  and  _413
REMARK  176  A    between atoms: _415  and  _417
REMARK  177  A    between atoms: _417  and  _418
REMARK  178  A    between atoms: _417  and  _420
REMARK  179  A    between atoms: _420  and  _421
REMARK  180  A    between atoms: _421  and  _422
REMARK  181  A    between atoms: _425  and  _427
REMARK  182  A    between atoms: _427  and  _428
REMARK  183  A    between atoms: _430  and  _432
REMARK  184  A    between atoms: _432  and  _433
REMARK  185  A    between atoms: _432  and  _435
REMARK  186  A    between atoms: _435  and  _436
REMARK  187  A    between atoms: _437  and  _439
REMARK  188  A    between atoms: _439  and  _440
REMARK  189  A    between atoms: _443  and  _445
REMARK  190  A    between atoms: _445  and  _446
REMARK  191  A    between atoms: _445  and  _448
REMARK  192  A    between atoms: _448  and  _449
REMARK  193  A    between atoms: _449  and  _450
REMARK  194  A    between atoms: _450  and  _451
REMARK  195  A    between atoms: _460  and  _462
REMARK  196  A    between atoms: _462  and  _463
REMARK  197  A    between atoms: _462  and  _465
REMARK  198  A    between atoms: _465  and  _466
REMARK  199  A    between atoms: _466  and  _467
REMARK  200  A    between atoms: _467  and  _468
REMARK  201  A    between atoms: _468  and  _469
REMARK  202  A    between atoms: _473  and  _475
REMARK  203  A    between atoms: _475  and  _476
REMARK  204  A    between atoms: _475  and  _478
REMARK  205  A    between atoms: _478  and  _479
REMARK  206  A    between atoms: _484  and  _485
REMARK  207  A    between atoms: _487  and  _489
REMARK  208  A    between atoms: _489  and  _490
REMARK  209  A    between atoms: _492  and  _494
REMARK  210  A    between atoms: _494  and  _495
REMARK  211  A    between atoms: _494  and  _497
REMARK  212  A    between atoms: _497  and  _498
REMARK  213  A    between atoms: _501  and  _503
REMARK  214  A    between atoms: _503  and  _504
REMARK  215  A    between atoms: _503  and  _506
REMARK  216  A    between atoms: _506  and  _507
REMARK  217  A    between atoms: _512  and  _513
REMARK  218  A    between atoms: _515  and  _517
REMARK  219  A    between atoms: _517  and  _518
REMARK  220  A    between atoms: _517  and  _520
REMARK  221  A    between atoms: _520  and  _521
REMARK                            x       y       z     vdW  Elec       q    Type
REMARK                         _______ _______ _______ _____ _____    ______ ____
ROOT
ATOM      1  CB  HIS A   1      23.712  58.754   7.202  0.00  0.00    +0.072 C 
ENDROOT
BRANCH   1   2
ATOM      2  CG  HIS A   1      23.742  58.422   8.671  0.00  0.00    +0.082 A 
ATOM      3  CD2 HIS A   1      23.131  59.008   9.729  0.00  0.00    +0.115 A 
ATOM      4  NE2 HIS A   1      23.504  58.305  10.858  0.00  0.00    -0.221 NA
ATOM      5  CE1 HIS A   1      24.324  57.333  10.495  0.00  0.00    +0.199 A 
ATOM      6  ND1 HIS A   1      24.485  57.385   9.183  0.00  0.00    -0.227 NA
ENDBRANCH   1   2
BRANCH   1   7
ATOM      7  CA  HIS A   1      25.005  59.412   6.680  0.00  0.00    +0.139 C 
BRANCH   7   8
ATOM      8  N   HIS A   1      24.953  59.544   5.242  0.00  0.00    -0.239 NA
ATOM      9  H   HIS A   1      24.826  58.687   4.667  0.00  0.00    +0.142 HD
ENDBRANCH   7   8
BRANCH   7  10
ATOM     10  C   HIS A   1      26.211  58.497   6.907  0.00  0.00    +0.224 C 
ATOM     11  O   HIS A   1      26.268  57.370   6.388  0.00  0.00    -0.287 OA
ENDBRANCH   7  10
ENDBRANCH   1   7
TORSDOF 4
REMARK  Name = ../refined-set-2016/2vwo/2vwo_pocket.pdb
REMARK  221 active torsions:
REMARK  status: ('A' for Active; 'I' for Inactive)
REMARK    1  A    between atoms: _1  and  _5
REMARK    2  A    between atoms: _5  and  _6
REMARK    3  A    between atoms: _5  and  _8
REMARK    4  A    between atoms: _8  and  _9
REMARK    5  A    between atoms: _12  and  _14
REMARK    6  A    between atoms: _14  and  _15
REMARK    7  A    between atoms: _14  and  _17
REMARK    8  A    between atoms: _20  and  _22
REMARK    9  A    between atoms: _22  and  _23
REMARK   10  A    between atoms: _22  and  _25
REMARK   11  A    between atoms: _25  and  _26
REMARK   12  A    between atoms: _31  and  _33
REMARK   13  A    between atoms: _33  and  _34
REMARK   14  A    between atoms: _33  and  _36
REMARK   15  A    between atoms: _36  and  _37
REMARK   16  A    between atoms: _37  and  _38
REMARK   17  A    between atoms: _43  and  _45
REMARK   18  A    between atoms: _45  and  _46
REMARK   19  A    between atoms: _45  and  _48
REMARK   20  A    between atoms: _48  and  _49
REMARK   21  A    between atoms: _52  and  _54
REMARK   22  A    between atoms: _54  and  _55
REMARK   23  A    between atoms: _54  and  _57
REMARK   24  A    between atoms: _57  and  _58
REMARK   25  A    between atoms: _58  and  _59
REMARK   26  A    between atoms: _59  and  _60
REMARK   27  A    between atoms: _60  and  _61
REMARK   28  A    between atoms: _65  and  _67
REMARK   29  A    between atoms: _67  and  _68
REMARK   30  A    between atoms: _67  and  _70
REMARK   31  A    between atoms: _70  and  _71
REMARK   32  A    between atoms: _71  and  _72
REMARK   33  A    between atoms: _75  and  _77
REMARK   34  A    between atoms: _77  and  _78
REMARK   35  A    between atoms: _77  and  _80
REMARK   36  A    between atoms: _80  and  _81
REMARK   37  A    between atoms: _84  and  _86
REMARK   38  A    between atoms: _86  and  _87
REMARK   39  A    between atoms: _86  and  _89
REMARK   40  A    between atoms: _89  and  _90
REMARK   41  A    between atoms: _95  and  _96
REMARK   42  A    between atoms: _98  and  _100
REMARK   43  A    between atoms: _100  and  _101
REMARK   44  A    between atoms: _100  and  _103
REMARK   45  A    between atoms: _103  and  _104
REMARK   46  A    between atoms: _107  and  _109
REMARK   47  A    between atoms: _109  and  _110
REMARK   48  A    between atoms: _109  and  _112
REMARK   49  A    between atoms: _112  and  _113
REMARK   50  A    between atoms: _116  and  _118
REMARK   51  A    between atoms: _118  and  _119
REMARK   52  A    between atoms: _118  and  _121
REMARK   53  A    between atoms: _124  and  _126
REMARK   54  A    between atoms: _126  and  _127
REMARK   55  A    between atoms: _126  and  _129
REMARK   56  A    between atoms: _129  and  _130
REMARK   57  A    between atoms: _130  and  _131
REMARK   58  A    between atoms: _131  and  _132
REMARK   59  A    between atoms: _141  and  _143
REMARK   60  A    between atoms: _143  and  _144
REMARK   61  A    between atoms: _143  and  _146
REMARK   62  A    between atoms: _146  and  _147
REMARK   63  A    between atoms: _152  and  _154
REMARK   64  A    between atoms: _154  and  _155
REMARK   65  A    between atoms: _154  and  _157
REMARK   66  A    between atoms: _157  and  _158
REMARK   67  A    between atoms: _158  and  _159
REMARK   68  A    between atoms: _162  and  _164
REMARK   69  A    between atoms: _164  and  _165
REMARK   70  A    between atoms: _164  and  _167
REMARK   71  A    between atoms: _167  and  _168
REMARK   72  A    between atoms: _168  and  _169
REMARK   73  A    between atoms: _169  and  _170
REMARK   74  A    between atoms: _170  and  _171
REMARK   75  A    between atoms: _175  and  _177
REMARK   76  A    between atoms: _177  and  _178
REMARK   77  A    between atoms: _180  and  _182
REMARK   78  A    between atoms: _182  and  _183
REMARK   79  A    between atoms: _182  and  _185
REMARK   80  A    between atoms: _188  and  _190
REMARK   81  A    between atoms: _190  and  _191
REMARK   82  A    between atoms: _190  and  _193
REMARK   83  A    between atoms: _193  and  _194
REMARK   84  A    between atoms: _196  and  _198
REMARK   85  A    between atoms: _198  and  _199
REMARK   86  A    between atoms: _198  and  _201
REMARK   87  A    between atoms: _201  and  _202
REMARK   88  A    between atoms: _204  and  _206
REMARK   89  A    between atoms: _206  and  _207
REMARK   90  A    between atoms: _206  and  _209
REMARK   91  A    between atoms: _209  and  _210
REMARK   92  A    between atoms: _216  and  _218
REMARK   93  A    between atoms: _218  and  _219
REMARK   94  A    between atoms: _218  and  _221
REMARK   95  A    between atoms: _221  and  _222
REMARK   96  A    between atoms: _225  and  _227
REMARK   97  A    between atoms: _227  and  _228
REMARK   98  A    between atoms: _227  and  _230
REMARK   99  A    between atoms: _230  and  _231
REMARK  100  A    between atoms: _234  and  _236
REMARK  101  A    between atoms: _236  and  _237
REMARK  102  A    between atoms: _236  and  _239
REMARK  103  A    between atoms: _239  and  _240
REMARK  104  A    between atoms: _243  and  _245
REMARK  105  A    between atoms: _245  and  _246
REMARK  106  A    between atoms: _245  and  _248
REMARK  107  A    between atoms: _248  and  _249
REMARK  108  A    between atoms: _249  and  _250
REMARK  109  A    between atoms: _252  and  _254
REMARK  110  A    between atoms: _254  and  _255
REMARK  111  A    between atoms: _254  and  _257
REMARK  112  A    between atoms: _257  and  _258
REMARK  113  A    between atoms: _264  and  _266
REMARK  114  A    between atoms: _266  and  _267
REMARK  115  A    between atoms: _266  and  _269
REMARK  116  A    between atoms: _271  and  _273
REMARK  117  A    between atoms: _273  and  _274
REMARK  118  A    between atoms: _277  and  _279
REMARK  119  A    between atoms: _279  and  _280
REMARK  120  A    between atoms: _282  and  _284
REMARK  121  A    between atoms: _284  and  _285
REMARK  122  A    between atoms: _284  and  _287
REMARK  123  A    between atoms: _287  and  _288
REMARK  124  A    between atoms: _288  and  _289
REMARK  125  A    between atoms: _292  and  _294
REMARK  126  A    between atoms: _294  and  _295
REMARK  127  A    between atoms: _294  and  _297
REMARK  128  A    between atoms: _297  and  _298
REMARK  129  A    between atoms: _301  and  _303
REMARK  130  A    between atoms: _303  and  _304
REMARK  131  A    between atoms: _307  and  _309
REMARK  132  A    between atoms: _309  and  _310
REMARK  133  A    between atoms: _309  and  _312
REMARK  134  A    between atoms: _312  and  _313
REMARK  135  A    between atoms: _313  and  _436
REMARK  136  A    between atoms: _314  and  _316
REMARK  137  A    between atoms: _316  and  _317
REMARK  138  A    between atoms: _316  and  _319
REMARK  139  A    between atoms: _319  and  _320
REMARK  140  A    between atoms: _320  and  _321
REMARK  141  A    between atoms: _326  and  _328
REMARK  142  A    between atoms: _328  and  _329
REMARK  143  A    between atoms: _331  and  _333
REMARK  144  A    between atoms: _333  and  _334
REMARK  145  A    between atoms: _333  and  _336
REMARK  146  A    between atoms: _336  and  _337
REMARK  147  A    between atoms: _340  and  _342
REMARK  148  A    between atoms: _342  and  _343
REMARK  149  A    between atoms: _342  and  _345
REMARK  150  A    between atoms: _345  and  _346
REMARK  151  A    between atoms: _348  and  _350
REMARK  152  A    between atoms: _350  and  _351
REMARK  153  A    between atoms: _353  and  _355
REMARK  154  A    between atoms: _355  and  _356
REMARK  155  A    between atoms: _358  and  _360
REMARK  156  A    between atoms: _360  and  _361
REMARK  157  A    between atoms: _360  and  _363
REMARK  158  A    between atoms: _363  and  _364
REMARK  159  A    between atoms: _369  and  _371
REMARK  160  A    between atoms: _371  and  _372
REMARK  161  A    between atoms: _371  and  _374
REMARK  162  A    between atoms: _374  and  _375
REMARK  163  A    between atoms: _378  and  _380
REMARK  164  A    between atoms: _380  and  _381
REMARK  165  A    between atoms: _380  and  _383
REMARK  166  A    between atoms: _386  and  _388
REMARK  167  A    between atoms: _388  and  _389
REMARK  168  A    between atoms: _388  and  _391
REMARK  169  A    between atoms: _391  and  _392
REMARK  170  A    between atoms: _394  and  _396
REMARK  171  A    between atoms: _396  and  _397
REMARK  172  A    between atoms: _396  and  _399
REMARK  173  A    between atoms: _399  and  _400
REMARK  174  A    between atoms: _410  and  _412
REMARK  175  A    between atoms: _412  and  _413
REMARK  176  A    between atoms: _415  and  _417
REMARK  177  A    between atoms: _417  and  _418
REMARK  178  A    between atoms: _417  and  _420
REMARK  179  A    between atoms: _420  and  _421
REMARK  180  A    between atoms: _421  and  _422
REMARK  181  A    between atoms: _425  and  _427
REMARK  182  A    between atoms: _427  and  _428
REMARK  183  A    between atoms: _430  and  _432
REMARK  184  A    between atoms: _432  and  _433
REMARK  185  A    between atoms: _432  and  _435
REMARK  186  A    between atoms: _435  and  _436
REMARK  187  A    between atoms: _437  and  _439
REMARK  188  A    between atoms: _439  and  _440
REMARK  189  A    between atoms: _443  and  _445
REMARK  190  A    between atoms: _445  and  _446
REMARK  191  A    between atoms: _445  and  _448
REMARK  192  A    between atoms: _448  and  _449
REMARK  193  A    between atoms: _449  and  _450
REMARK  194  A    between atoms: _450  and  _451
REMARK  195  A    between atoms: _460  and  _462
REMARK  196  A    between atoms: _462  and  _463
REMARK  197  A    between atoms: _462  and  _465
REMARK  198  A    between atoms: _465  and  _466
REMARK  199  A    between atoms: _466  and  _467
REMARK  200  A    between atoms: _467  and  _468
REMARK  201  A    between atoms: _468  and  _469
REMARK  202  A    between atoms: _473  and  _475
REMARK  203  A    between atoms: _475  and  _476
REMARK  204  A    between atoms: _475  and  _478
REMARK  205  A    between atoms: _478  and  _479
REMARK  206  A    between atoms: _484  and  _485
REMARK  207  A    between atoms: _487  and  _489
REMARK  208  A    between atoms: _489  and  _490
REMARK  209  A    between atoms: _492  and  _494
REMARK  210  A    between atoms: _494  and  _495
REMARK  211  A    between atoms: _494  and  _497
REMARK  212  A    between atoms: _497  and  _498
REMARK  213  A    between atoms: _501  and  _503
REMARK  214  A    between atoms: _503  and  _504
REMARK  215  A    between atoms: _503  and  _506
REMARK  216  A    between atoms: _506  and  _507
REMARK  217  A    between atoms: _512  and  _513
REMARK  218  A    between atoms: _515  and  _517
REMARK  219  A    between atoms: _517  and  _518
REMARK  220  A    between atoms: _517  and  _520
REMARK  221  A    between atoms: _520  and  _521
REMARK                            x       y       z     vdW  Elec       q    Type
REMARK                         _______ _______ _______ _____ _____    ______ ____
ROOT
ATOM      1  C   GLY A   3      15.058  60.071  10.143  0.00  0.00    +0.243 C 
ATOM      2  O   GLY A   3      15.530  59.266  10.963  0.00  0.00    -0.273 OA
ATOM      3  N   ILE A   4      14.646  59.697   8.935  0.00  0.00    -0.297 N 
ATOM      4  H   ILE A   4      14.306  60.425   8.275  0.00  0.00    +0.150 HD
ENDROOT
BRANCH   3   5
ATOM      5  CA  ILE A   4      14.653  58.315   8.505  0.00  0.00    +0.149 C 
BRANCH   5   6
ATOM      6  C   ILE A   4      15.642  58.097   7.362  0.00  0.00    +0.241 C 
ATOM      7  N   TYR A   5      16.471  57.074   7.524  0.00  0.00    -0.297 N 
ATOM      8  H   TYR A   5      16.297  56.430   8.322  0.00  0.00    +0.150 HD
ATOM      9  O   ILE A   4      15.650  58.850   6.375  0.00  0.00    -0.273 OA
BRANCH   7  10
ATOM     10  CA  TYR A   5      17.607  56.794   6.660  0.00  0.00    +0.153 C 
BRANCH  10  11
ATOM     11  C   TYR A   5      17.511  55.388   6.100  0.00  0.00    +0.241 C 
ATOM     12  O   TYR A   5      17.086  54.449   6.804  0.00  0.00    -0.273 OA
ATOM     13  N   THR A   6      17.920  55.208   4.845  0.00  0.00    -0.296 N 
ATOM     14  H   THR A   6      18.132  56.032   4.247  0.00  0.00    +0.150 HD
BRANCH  13  15
ATOM     15  CA  THR A   6      18.073  53.856   4.304  0.00  0.00    +0.164 C 
BRANCH  15  16
ATOM     16  C   THR A   6      19.239  53.191   5.011  0.00  0.00    +0.229 C 
ATOM     17  O   THR A   6      20.306  53.791   5.163  0.00  0.00    -0.286 OA
ENDBRANCH  15  16
BRANCH  15  18
ATOM     18  CB  THR A   6      18.372  53.895   2.812  0.00  0.00    +0.136 C 
ATOM     19  CG2 THR A   6      18.450  52.490   2.203  0.00  0.00    +0.034 C 
BRANCH  18  20
ATOM     20  OG1 THR A   6      17.345  54.654   2.158  0.00  0.00    -0.382 OA
ATOM     21  HG1 THR A   6      17.529  54.687   1.186  0.00  0.00    +0.210 HD
ENDBRANCH  18  20
ENDBRANCH  15  18
ENDBRANCH  13  15
ENDBRANCH  10  11
BRANCH  10  22
ATOM     22  CB  TYR A   5      18.903  56.909   7.489  0.00  0.00    +0.055 C 
BRANCH  22  23
ATOM     23  CG  TYR A   5      19.130  58.324   7.963  0.00  0.00    -0.020 A 
ATOM     24  CD2 TYR A   5      18.442  58.856   9.049  0.00  0.00    -0.001 A 
ATOM     25  CE2 TYR A   5      18.645  60.163   9.482  0.00  0.00    +0.036 A 
ATOM     26  CZ  TYR A   5      19.522  60.984   8.776  0.00  0.00    +0.134 A 
ATOM     27  CE1 TYR A   5      20.206  60.483   7.675  0.00  0.00    +0.036 A 
ATOM     28  CD1 TYR A   5      20.004  59.178   7.257  0.00  0.00    -0.001 A 
BRANCH  26  29
ATOM     29  OH  TYR A   5      19.720  62.275   9.191  0.00  0.00    -0.506 OA
ATOM     30  HH  TYR A   5      18.859  62.763   9.171  0.00  0.00    +0.292 HD
ENDBRANCH  26  29
ENDBRANCH  22  23
ENDBRANCH  10  22
ENDBRANCH   7  10
ENDBRANCH   5   6
BRANCH   5  31
ATOM     31  CB  ILE A   4      13.253  57.790   8.100  0.00  0.00    +0.027 C 
ATOM     32  CG2 ILE A   4      13.285  56.254   7.991  0.00  0.00    +0.002 C 
BRANCH  31  33
ATOM     33  CG1 ILE A   4      12.134  58.352   9.004  0.00  0.00    +0.002 C 
ATOM     34  CD1 ILE A   4      12.206  57.984  10.507  0.00  0.00    +0.000 C 
ENDBRANCH  31  33
ENDBRANCH   5  31
ENDBRANCH   3   5
BRANCH   1  35
ATOM     35  CA  GLY A   3      14.961  61.561  10.453  0.00  0.00    +0.176 C 
BRANCH  35  37
ATOM     36  C   TYR A   2      13.308  61.799  12.194  0.00  0.00    +0.241 C 
ATOM     37  N   GLY A   3      14.589  61.741  11.854  0.00  0.00    -0.295 N 
ATOM     38  H   GLY A   3      15.326  61.823  12.583  0.00  0.00    +0.150 HD
ATOM     39  O   TYR A   2      12.395  61.830  11.369  0.00  0.00    -0.273 OA
BRANCH  36  40
ATOM     40  CA  TYR A   2      13.022  61.823  13.684  0.00  0.00    +0.153 C 
BRANCH  40  43
ATOM     41  C   LYS A   1      11.170  63.128  14.629  0.00  0.00    +0.238 C 
ATOM     42  O   LYS A   1      11.908  64.032  15.051  0.00  0.00    -0.274 OA
ATOM     43  N   TYR A   2      11.602  62.058  13.966  0.00  0.00    -0.297 N 
ATOM     44  H   TYR A   2      10.905  61.361  13.635  0.00  0.00    +0.150 HD
BRANCH  41  45
ATOM     45  CA  LYS A   1       9.668  63.208  14.830  0.00  0.00    +0.145 C 
BRANCH  45  46
ATOM     46  N   LYS A   1       9.368  63.913  16.069  0.00  0.00    -0.238 NA
ATOM     47  H   LYS A   1       9.809  64.838  16.248  0.00  0.00    +0.142 HD
ENDBRANCH  45  46
BRANCH  45  48
ATOM     48  CB  LYS A   1       9.037  63.929  13.635  0.00  0.00    +0.026 C 
BRANCH  48  49
ATOM     49  CG  LYS A   1       7.518  63.964  13.677  0.00  0.00    -0.000 C 
BRANCH  49  50
ATOM     50  CD  LYS A   1       6.909  62.649  13.223  0.00  0.00    -0.024 C 
BRANCH  50  51
ATOM     51  CE  LYS A   1       5.392  62.635  13.425  0.00  0.00    -0.086 C 
BRANCH  51  52
ATOM     52  NZ  LYS A   1       5.033  62.556  14.873  0.00  0.00    +0.380 N 
ATOM     53  HZ1 LYS A   1       5.424  63.381  15.371  0.00  0.00    -0.089 HD
ATOM     54  HZ2 LYS A   1       5.428  61.684  15.280  0.00  0.00    -0.089 HD
ATOM     55  HZ3 LYS A   1       3.998  62.549  14.972  0.00  0.00    -0.089 HD
ENDBRANCH  51  52
ENDBRANCH  50  51
ENDBRANCH  49  50
ENDBRANCH  48  49
ENDBRANCH  45  48
ENDBRANCH  41  45
ENDBRANCH  40  43
BRANCH  40  56
ATOM     56  CB  TYR A   2      13.477  60.500  14.299  0.00  0.00    +0.055 C 
BRANCH  56  57
ATOM     57  CG  TYR A   2      13.207  60.435  15.786  0.00  0.00    -0.020 A 
ATOM     58  CD2 TYR A   2      14.032  61.099  16.683  0.00  0.00    -0.001 A 
ATOM     59  CE2 TYR A   2      13.774  61.064  18.053  0.00  0.00    +0.036 A 
ATOM     60  CZ  TYR A   2      12.698  60.345  18.516  0.00  0.00    +0.134 A 
ATOM     61  CE1 TYR A   2      11.875  59.686  17.653  0.00  0.00    +0.036 A 
ATOM     62  CD1 TYR A   2      12.128  59.730  16.288  0.00  0.00    -0.001 A 
BRANCH  60  63
ATOM     63  OH  TYR A   2      12.443  60.286  19.875  0.00  0.00    -0.506 OA
ATOM     64  HH  TYR A   2      11.545  60.660  20.058  0.00  0.00    +0.292 HD
ENDBRANCH  60  63
ENDBRANCH  56  57
ENDBRANCH  40  56
ENDBRANCH  36  40
ENDBRANCH  35  37
ENDBRANCH   1  35
TORSDOF 27
REMARK  Name = ../refined-set-2016/2vwo/2vwo_pocket.pdb
REMARK  221 active torsions:
REMARK  status: ('A' for Active; 'I' for Inactive)
REMARK    1  A    between atoms: _1  and  _5
REMARK    2  A    between atoms: _5  and  _6
REMARK    3  A    between atoms: _5  and  _8
REMARK    4  A    between atoms: _8  and  _9
REMARK    5  A    between atoms: _12  and  _14
REMARK    6  A    between atoms: _14  and  _15
REMARK    7  A    between atoms: _14  and  _17
REMARK    8  A    between atoms: _20  and  _22
REMARK    9  A    between atoms: _22  and  _23
REMARK   10  A    between atoms: _22  and  _25
REMARK   11  A    between atoms: _25  and  _26
REMARK   12  A    between atoms: _31  and  _33
REMARK   13  A    between atoms: _33  and  _34
REMARK   14  A    between atoms: _33  and  _36
REMARK   15  A    between atoms: _36  and  _37
REMARK   16  A    between atoms: _37  and  _38
REMARK   17  A    between atoms: _43  and  _45
REMARK   18  A    between atoms: _45  and  _46
REMARK   19  A    between atoms: _45  and  _48
REMARK   20  A    between atoms: _48  and  _49
REMARK   21  A    between atoms: _52  and  _54
REMARK   22  A    between atoms: _54  and  _55
REMARK   23  A    between atoms: _54  and  _57
REMARK   24  A    between atoms: _57  and  _58
REMARK   25  A    between atoms: _58  and  _59
REMARK   26  A    between atoms: _59  and  _60
REMARK   27  A    between atoms: _60  and  _61
REMARK   28  A    between atoms: _65  and  _67
REMARK   29  A    between atoms: _67  and  _68
REMARK   30  A    between atoms: _67  and  _70
REMARK   31  A    between atoms: _70  and  _71
REMARK   32  A    between atoms: _71  and  _72
REMARK   33  A    between atoms: _75  and  _77
REMARK   34  A    between atoms: _77  and  _78
REMARK   35  A    between atoms: _77  and  _80
REMARK   36  A    between atoms: _80  and  _81
REMARK   37  A    between atoms: _84  and  _86
REMARK   38  A    between atoms: _86  and  _87
REMARK   39  A    between atoms: _86  and  _89
REMARK   40  A    between atoms: _89  and  _90
REMARK   41  A    between atoms: _95  and  _96
REMARK   42  A    between atoms: _98  and  _100
REMARK   43  A    between atoms: _100  and  _101
REMARK   44  A    between atoms: _100  and  _103
REMARK   45  A    between atoms: _103  and  _104
REMARK   46  A    between atoms: _107  and  _109
REMARK   47  A    between atoms: _109  and  _110
REMARK   48  A    between atoms: _109  and  _112
REMARK   49  A    between atoms: _112  and  _113
REMARK   50  A    between atoms: _116  and  _118
REMARK   51  A    between atoms: _118  and  _119
REMARK   52  A    between atoms: _118  and  _121
REMARK   53  A    between atoms: _124  and  _126
REMARK   54  A    between atoms: _126  and  _127
REMARK   55  A    between atoms: _126  and  _129
REMARK   56  A    between atoms: _129  and  _130
REMARK   57  A    between atoms: _130  and  _131
REMARK   58  A    between atoms: _131  and  _132
REMARK   59  A    between atoms: _141  and  _143
REMARK   60  A    between atoms: _143  and  _144
REMARK   61  A    between atoms: _143  and  _146
REMARK   62  A    between atoms: _146  and  _147
REMARK   63  A    between atoms: _152  and  _154
REMARK   64  A    between atoms: _154  and  _155
REMARK   65  A    between atoms: _154  and  _157
REMARK   66  A    between atoms: _157  and  _158
REMARK   67  A    between atoms: _158  and  _159
REMARK   68  A    between atoms: _162  and  _164
REMARK   69  A    between atoms: _164  and  _165
REMARK   70  A    between atoms: _164  and  _167
REMARK   71  A    between atoms: _167  and  _168
REMARK   72  A    between atoms: _168  and  _169
REMARK   73  A    between atoms: _169  and  _170
REMARK   74  A    between atoms: _170  and  _171
REMARK   75  A    between atoms: _175  and  _177
REMARK   76  A    between atoms: _177  and  _178
REMARK   77  A    between atoms: _180  and  _182
REMARK   78  A    between atoms: _182  and  _183
REMARK   79  A    between atoms: _182  and  _185
REMARK   80  A    between atoms: _188  and  _190
REMARK   81  A    between atoms: _190  and  _191
REMARK   82  A    between atoms: _190  and  _193
REMARK   83  A    between atoms: _193  and  _194
REMARK   84  A    between atoms: _196  and  _198
REMARK   85  A    between atoms: _198  and  _199
REMARK   86  A    between atoms: _198  and  _201
REMARK   87  A    between atoms: _201  and  _202
REMARK   88  A    between atoms: _204  and  _206
REMARK   89  A    between atoms: _206  and  _207
REMARK   90  A    between atoms: _206  and  _209
REMARK   91  A    between atoms: _209  and  _210
REMARK   92  A    between atoms: _216  and  _218
REMARK   93  A    between atoms: _218  and  _219
REMARK   94  A    between atoms: _218  and  _221
REMARK   95  A    between atoms: _221  and  _222
REMARK   96  A    between atoms: _225  and  _227
REMARK   97  A    between atoms: _227  and  _228
REMARK   98  A    between atoms: _227  and  _230
REMARK   99  A    between atoms: _230  and  _231
REMARK  100  A    between atoms: _234  and  _236
REMARK  101  A    between atoms: _236  and  _237
REMARK  102  A    between atoms: _236  and  _239
REMARK  103  A    between atoms: _239  and  _240
REMARK  104  A    between atoms: _243  and  _245
REMARK  105  A    between atoms: _245  and  _246
REMARK  106  A    between atoms: _245  and  _248
REMARK  107  A    between atoms: _248  and  _249
REMARK  108  A    between atoms: _249  and  _250
REMARK  109  A    between atoms: _252  and  _254
REMARK  110  A    between atoms: _254  and  _255
REMARK  111  A    between atoms: _254  and  _257
REMARK  112  A    between atoms: _257  and  _258
REMARK  113  A    between atoms: _264  and  _266
REMARK  114  A    between atoms: _266  and  _267
REMARK  115  A    between atoms: _266  and  _269
REMARK  116  A    between atoms: _271  and  _273
REMARK  117  A    between atoms: _273  and  _274
REMARK  118  A    between atoms: _277  and  _279
REMARK  119  A    between atoms: _279  and  _280
REMARK  120  A    between atoms: _282  and  _284
REMARK  121  A    between atoms: _284  and  _285
REMARK  122  A    between atoms: _284  and  _287
REMARK  123  A    between atoms: _287  and  _288
REMARK  124  A    between atoms: _288  and  _289
REMARK  125  A    between atoms: _292  and  _294
REMARK  126  A    between atoms: _294  and  _295
REMARK  127  A    between atoms: _294  and  _297
REMARK  128  A    between atoms: _297  and  _298
REMARK  129  A    between atoms: _301  and  _303
REMARK  130  A    between atoms: _303  and  _304
REMARK  131  A    between atoms: _307  and  _309
REMARK  132  A    between atoms: _309  and  _310
REMARK  133  A    between atoms: _309  and  _312
REMARK  134  A    between atoms: _312  and  _313
REMARK  135  A    between atoms: _313  and  _436
REMARK  136  A    between atoms: _314  and  _316
REMARK  137  A    between atoms: _316  and  _317
REMARK  138  A    between atoms: _316  and  _319
REMARK  139  A    between atoms: _319  and  _320
REMARK  140  A    between atoms: _320  and  _321
REMARK  141  A    between atoms: _326  and  _328
REMARK  142  A    between atoms: _328  and  _329
REMARK  143  A    between atoms: _331  and  _333
REMARK  144  A    between atoms: _333  and  _334
REMARK  145  A    between atoms: _333  and  _336
REMARK  146  A    between atoms: _336  and  _337
REMARK  147  A    between atoms: _340  and  _342
REMARK  148  A    between atoms: _342  and  _343
REMARK  149  A    between atoms: _342  and  _345
REMARK  150  A    between atoms: _345  and  _346
REMARK  151  A    between atoms: _348  and  _350
REMARK  152  A    between atoms: _350  and  _351
REMARK  153  A    between atoms: _353  and  _355
REMARK  154  A    between atoms: _355  and  _356
REMARK  155  A    between atoms: _358  and  _360
REMARK  156  A    between atoms: _360  and  _361
REMARK  157  A    between atoms: _360  and  _363
REMARK  158  A    between atoms: _363  and  _364
REMARK  159  A    between atoms: _369  and  _371
REMARK  160  A    between atoms: _371  and  _372
REMARK  161  A    between atoms: _371  and  _374
REMARK  162  A    between atoms: _374  and  _375
REMARK  163  A    between atoms: _378  and  _380
REMARK  164  A    between atoms: _380  and  _381
REMARK  165  A    between atoms: _380  and  _383
REMARK  166  A    between atoms: _386  and  _388
REMARK  167  A    between atoms: _388  and  _389
REMARK  168  A    between atoms: _388  and  _391
REMARK  169  A    between atoms: _391  and  _392
REMARK  170  A    between atoms: _394  and  _396
REMARK  171  A    between atoms: _396  and  _397
REMARK  172  A    between atoms: _396  and  _399
REMARK  173  A    between atoms: _399  and  _400
REMARK  174  A    between atoms: _410  and  _412
REMARK  175  A    between atoms: _412  and  _413
REMARK  176  A    between atoms: _415  and  _417
REMARK  177  A    between atoms: _417  and  _418
REMARK  178  A    between atoms: _417  and  _420
REMARK  179  A    between atoms: _420  and  _421
REMARK  180  A    between atoms: _421  and  _422
REMARK  181  A    between atoms: _425  and  _427
REMARK  182  A    between atoms: _427  and  _428
REMARK  183  A    between atoms: _430  and  _432
REMARK  184  A    between atoms: _432  and  _433
REMARK  185  A    between atoms: _432  and  _435
REMARK  186  A    between atoms: _435  and  _436
REMARK  187  A    between atoms: _437  and  _439
REMARK  188  A    between atoms: _439  and  _440
REMARK  189  A    between atoms: _443  and  _445
REMARK  190  A    between atoms: _445  and  _446
REMARK  191  A    between atoms: _445  and  _448
REMARK  192  A    between atoms: _448  and  _449
REMARK  193  A    between atoms: _449  and  _450
REMARK  194  A    between atoms: _450  and  _451
REMARK  195  A    between atoms: _460  and  _462
REMARK  196  A    between atoms: _462  and  _463
REMARK  197  A    between atoms: _462  and  _465
REMARK  198  A    between atoms: _465  and  _466
REMARK  199  A    between atoms: _466  and  _467
REMARK  200  A    between atoms: _467  and  _468
REMARK  201  A    between atoms: _468  and  _469
REMARK  202  A    between atoms: _473  and  _475
REMARK  203  A    between atoms: _475  and  _476
REMARK  204  A    between atoms: _475  and  _478
REMARK  205  A    between atoms: _478  and  _479
REMARK  206  A    between atoms: _484  and  _485
REMARK  207  A    between atoms: _487  and  _489
REMARK  208  A    between atoms: _489  and  _490
REMARK  209  A    between atoms: _492  and  _494
REMARK  210  A    between atoms: _494  and  _495
REMARK  211  A    between atoms: _494  and  _497
REMARK  212  A    between atoms: _497  and  _498
REMARK  213  A    between atoms: _501  and  _503
REMARK  214  A    between atoms: _503  and  _504
REMARK  215  A    between atoms: _503  and  _506
REMARK  216  A    between atoms: _506  and  _507
REMARK  217  A    between atoms: _512  and  _513
REMARK  218  A    between atoms: _515  and  _517
REMARK  219  A    between atoms: _517  and  _518
REMARK  220  A    between atoms: _517  and  _520
REMARK  221  A    between atoms: _520  and  _521
REMARK                            x       y       z     vdW  Elec       q    Type
REMARK                         _______ _______ _______ _____ _____    ______ ____
ROOT
ATOM      1  O   HOH     1       6.137  49.276   4.573  0.00  0.00    +0.000 OA
ENDROOT
TORSDOF 0
REMARK  Name = ../refined-set-2016/2vwo/2vwo_pocket.pdb
REMARK  221 active torsions:
REMARK  status: ('A' for Active; 'I' for Inactive)
REMARK    1  A    between atoms: _1  and  _5
REMARK    2  A    between atoms: _5  and  _6
REMARK    3  A    between atoms: _5  and  _8
REMARK    4  A    between atoms: _8  and  _9
REMARK    5  A    between atoms: _12  and  _14
REMARK    6  A    between atoms: _14  and  _15
REMARK    7  A    between atoms: _14  and  _17
REMARK    8  A    between atoms: _20  and  _22
REMARK    9  A    between atoms: _22  and  _23
REMARK   10  A    between atoms: _22  and  _25
REMARK   11  A    between atoms: _25  and  _26
REMARK   12  A    between atoms: _31  and  _33
REMARK   13  A    between atoms: _33  and  _34
REMARK   14  A    between atoms: _33  and  _36
REMARK   15  A    between atoms: _36  and  _37
REMARK   16  A    between atoms: _37  and  _38
REMARK   17  A    between atoms: _43  and  _45
REMARK   18  A    between atoms: _45  and  _46
REMARK   19  A    between atoms: _45  and  _48
REMARK   20  A    between atoms: _48  and  _49
REMARK   21  A    between atoms: _52  and  _54
REMARK   22  A    between atoms: _54  and  _55
REMARK   23  A    between atoms: _54  and  _57
REMARK   24  A    between atoms: _57  and  _58
REMARK   25  A    between atoms: _58  and  _59
REMARK   26  A    between atoms: _59  and  _60
REMARK   27  A    between atoms: _60  and  _61
REMARK   28  A    between atoms: _65  and  _67
REMARK   29  A    between atoms: _67  and  _68
REMARK   30  A    between atoms: _67  and  _70
REMARK   31  A    between atoms: _70  and  _71
REMARK   32  A    between atoms: _71  and  _72
REMARK   33  A    between atoms: _75  and  _77
REMARK   34  A    between atoms: _77  and  _78
REMARK   35  A    between atoms: _77  and  _80
REMARK   36  A    between atoms: _80  and  _81
REMARK   37  A    between atoms: _84  and  _86
REMARK   38  A    between atoms: _86  and  _87
REMARK   39  A    between atoms: _86  and  _89
REMARK   40  A    between atoms: _89  and  _90
REMARK   41  A    between atoms: _95  and  _96
REMARK   42  A    between atoms: _98  and  _100
REMARK   43  A    between atoms: _100  and  _101
REMARK   44  A    between atoms: _100  and  _103
REMARK   45  A    between atoms: _103  and  _104
REMARK   46  A    between atoms: _107  and  _109
REMARK   47  A    between atoms: _109  and  _110
REMARK   48  A    between atoms: _109  and  _112
REMARK   49  A    between atoms: _112  and  _113
REMARK   50  A    between atoms: _116  and  _118
REMARK   51  A    between atoms: _118  and  _119
REMARK   52  A    between atoms: _118  and  _121
REMARK   53  A    between atoms: _124  and  _126
REMARK   54  A    between atoms: _126  and  _127
REMARK   55  A    between atoms: _126  and  _129
REMARK   56  A    between atoms: _129  and  _130
REMARK   57  A    between atoms: _130  and  _131
REMARK   58  A    between atoms: _131  and  _132
REMARK   59  A    between atoms: _141  and  _143
REMARK   60  A    between atoms: _143  and  _144
REMARK   61  A    between atoms: _143  and  _146
REMARK   62  A    between atoms: _146  and  _147
REMARK   63  A    between atoms: _152  and  _154
REMARK   64  A    between atoms: _154  and  _155
REMARK   65  A    between atoms: _154  and  _157
REMARK   66  A    between atoms: _157  and  _158
REMARK   67  A    between atoms: _158  and  _159
REMARK   68  A    between atoms: _162  and  _164
REMARK   69  A    between atoms: _164  and  _165
REMARK   70  A    between atoms: _164  and  _167
REMARK   71  A    between atoms: _167  and  _168
REMARK   72  A    between atoms: _168  and  _169
REMARK   73  A    between atoms: _169  and  _170
REMARK   74  A    between atoms: _170  and  _171
REMARK   75  A    between atoms: _175  and  _177
REMARK   76  A    between atoms: _177  and  _178
REMARK   77  A    between atoms: _180  and  _182
REMARK   78  A    between atoms: _182  and  _183
REMARK   79  A    between atoms: _182  and  _185
REMARK   80  A    between atoms: _188  and  _190
REMARK   81  A    between atoms: _190  and  _191
REMARK   82  A    between atoms: _190  and  _193
REMARK   83  A    between atoms: _193  and  _194
REMARK   84  A    between atoms: _196  and  _198
REMARK   85  A    between atoms: _198  and  _199
REMARK   86  A    between atoms: _198  and  _201
REMARK   87  A    between atoms: _201  and  _202
REMARK   88  A    between atoms: _204  and  _206
REMARK   89  A    between atoms: _206  and  _207
REMARK   90  A    between atoms: _206  and  _209
REMARK   91  A    between atoms: _209  and  _210
REMARK   92  A    between atoms: _216  and  _218
REMARK   93  A    between atoms: _218  and  _219
REMARK   94  A    between atoms: _218  and  _221
REMARK   95  A    between atoms: _221  and  _222
REMARK   96  A    between atoms: _225  and  _227
REMARK   97  A    between atoms: _227  and  _228
REMARK   98  A    between atoms: _227  and  _230
REMARK   99  A    between atoms: _230  and  _231
REMARK  100  A    between atoms: _234  and  _236
REMARK  101  A    between atoms: _236  and  _237
REMARK  102  A    between atoms: _236  and  _239
REMARK  103  A    between atoms: _239  and  _240
REMARK  104  A    between atoms: _243  and  _245
REMARK  105  A    between atoms: _245  and  _246
REMARK  106  A    between atoms: _245  and  _248
REMARK  107  A    between atoms: _248  and  _249
REMARK  108  A    between atoms: _249  and  _250
REMARK  109  A    between atoms: _252  and  _254
REMARK  110  A    between atoms: _254  and  _255
REMARK  111  A    between atoms: _254  and  _257
REMARK  112  A    between atoms: _257  and  _258
REMARK  113  A    between atoms: _264  and  _266
REMARK  114  A    between atoms: _266  and  _267
REMARK  115  A    between atoms: _266  and  _269
REMARK  116  A    between atoms: _271  and  _273
REMARK  117  A    between atoms: _273  and  _274
REMARK  118  A    between atoms: _277  and  _279
REMARK  119  A    between atoms: _279  and  _280
REMARK  120  A    between atoms: _282  and  _284
REMARK  121  A    between atoms: _284  and  _285
REMARK  122  A    between atoms: _284  and  _287
REMARK  123  A    between atoms: _287  and  _288
REMARK  124  A    between atoms: _288  and  _289
REMARK  125  A    between atoms: _292  and  _294
REMARK  126  A    between atoms: _294  and  _295
REMARK  127  A    between atoms: _294  and  _297
REMARK  128  A    between atoms: _297  and  _298
REMARK  129  A    between atoms: _301  and  _303
REMARK  130  A    between atoms: _303  and  _304
REMARK  131  A    between atoms: _307  and  _309
REMARK  132  A    between atoms: _309  and  _310
REMARK  133  A    between atoms: _309  and  _312
REMARK  134  A    between atoms: _312  and  _313
REMARK  135  A    between atoms: _313  and  _436
REMARK  136  A    between atoms: _314  and  _316
REMARK  137  A    between atoms: _316  and  _317
REMARK  138  A    between atoms: _316  and  _319
REMARK  139  A    between atoms: _319  and  _320
REMARK  140  A    between atoms: _320  and  _321
REMARK  141  A    between atoms: _326  and  _328
REMARK  142  A    between atoms: _328  and  _329
REMARK  143  A    between atoms: _331  and  _333
REMARK  144  A    between atoms: _333  and  _334
REMARK  145  A    between atoms: _333  and  _336
REMARK  146  A    between atoms: _336  and  _337
REMARK  147  A    between atoms: _340  and  _342
REMARK  148  A    between atoms: _342  and  _343
REMARK  149  A    between atoms: _342  and  _345
REMARK  150  A    between atoms: _345  and  _346
REMARK  151  A    between atoms: _348  and  _350
REMARK  152  A    between atoms: _350  and  _351
REMARK  153  A    between atoms: _353  and  _355
REMARK  154  A    between atoms: _355  and  _356
REMARK  155  A    between atoms: _358  and  _360
REMARK  156  A    between atoms: _360  and  _361
REMARK  157  A    between atoms: _360  and  _363
REMARK  158  A    between atoms: _363  and  _364
REMARK  159  A    between atoms: _369  and  _371
REMARK  160  A    between atoms: _371  and  _372
REMARK  161  A    between atoms: _371  and  _374
REMARK  162  A    between atoms: _374  and  _375
REMARK  163  A    between atoms: _378  and  _380
REMARK  164  A    between atoms: _380  and  _381
REMARK  165  A    between atoms: _380  and  _383
REMARK  166  A    between atoms: _386  and  _388
REMARK  167  A    between atoms: _388  and  _389
REMARK  168  A    between atoms: _388  and  _391
REMARK  169  A    between atoms: _391  and  _392
REMARK  170  A    between atoms: _394  and  _396
REMARK  171  A    between atoms: _396  and  _397
REMARK  172  A    between atoms: _396  and  _399
REMARK  173  A    between atoms: _399  and  _400
REMARK  174  A    between atoms: _410  and  _412
REMARK  175  A    between atoms: _412  and  _413
REMARK  176  A    between atoms: _415  and  _417
REMARK  177  A    between atoms: _417  and  _418
REMARK  178  A    between atoms: _417  and  _420
REMARK  179  A    between atoms: _420  and  _421
REMARK  180  A    between atoms: _421  and  _422
REMARK  181  A    between atoms: _425  and  _427
REMARK  182  A    between atoms: _427  and  _428
REMARK  183  A    between atoms: _430  and  _432
REMARK  184  A    between atoms: _432  and  _433
REMARK  185  A    between atoms: _432  and  _435
REMARK  186  A    between atoms: _435  and  _436
REMARK  187  A    between atoms: _437  and  _439
REMARK  188  A    between atoms: _439  and  _440
REMARK  189  A    between atoms: _443  and  _445
REMARK  190  A    between atoms: _445  and  _446
REMARK  191  A    between atoms: _445  and  _448
REMARK  192  A    between atoms: _448  and  _449
REMARK  193  A    between atoms: _449  and  _450
REMARK  194  A    between atoms: _450  and  _451
REMARK  195  A    between atoms: _460  and  _462
REMARK  196  A    between atoms: _462  and  _463
REMARK  197  A    between atoms: _462  and  _465
REMARK  198  A    between atoms: _465  and  _466
REMARK  199  A    between atoms: _466  and  _467
REMARK  200  A    between atoms: _467  and  _468
REMARK  201  A    between atoms: _468  and  _469
REMARK  202  A    between atoms: _473  and  _475
REMARK  203  A    between atoms: _475  and  _476
REMARK  204  A    between atoms: _475  and  _478
REMARK  205  A    between atoms: _478  and  _479
REMARK  206  A    between atoms: _484  and  _485
REMARK  207  A    between atoms: _487  and  _489
REMARK  208  A    between atoms: _489  and  _490
REMARK  209  A    between atoms: _492  and  _494
REMARK  210  A    between atoms: _494  and  _495
REMARK  211  A    between atoms: _494  and  _497
REMARK  212  A    between atoms: _497  and  _498
REMARK  213  A    between atoms: _501  and  _503
REMARK  214  A    between atoms: _503  and  _504
REMARK  215  A    between atoms: _503  and  _506
REMARK  216  A    between atoms: _506  and  _507
REMARK  217  A    between atoms: _512  and  _513
REMARK  218  A    between atoms: _515  and  _517
REMARK  219  A    between atoms: _517  and  _518
REMARK  220  A    between atoms: _517  and  _520
REMARK  221  A    between atoms: _520  and  _521
REMARK                            x       y       z     vdW  Elec       q    Type
REMARK                         _______ _______ _______ _____ _____    ______ ____
ROOT
ATOM      1  O   HOH     1       6.812  52.322   4.929  0.00  0.00    +0.000 OA
ENDROOT
TORSDOF 0
REMARK  Name = ../refined-set-2016/2vwo/2vwo_pocket.pdb
REMARK  221 active torsions:
REMARK  status: ('A' for Active; 'I' for Inactive)
REMARK    1  A    between atoms: _1  and  _5
REMARK    2  A    between atoms: _5  and  _6
REMARK    3  A    between atoms: _5  and  _8
REMARK    4  A    between atoms: _8  and  _9
REMARK    5  A    between atoms: _12  and  _14
REMARK    6  A    between atoms: _14  and  _15
REMARK    7  A    between atoms: _14  and  _17
REMARK    8  A    between atoms: _20  and  _22
REMARK    9  A    between atoms: _22  and  _23
REMARK   10  A    between atoms: _22  and  _25
REMARK   11  A    between atoms: _25  and  _26
REMARK   12  A    between atoms: _31  and  _33
REMARK   13  A    between atoms: _33  and  _34
REMARK   14  A    between atoms: _33  and  _36
REMARK   15  A    between atoms: _36  and  _37
REMARK   16  A    between atoms: _37  and  _38
REMARK   17  A    between atoms: _43  and  _45
REMARK   18  A    between atoms: _45  and  _46
REMARK   19  A    between atoms: _45  and  _48
REMARK   20  A    between atoms: _48  and  _49
REMARK   21  A    between atoms: _52  and  _54
REMARK   22  A    between atoms: _54  and  _55
REMARK   23  A    between atoms: _54  and  _57
REMARK   24  A    between atoms: _57  and  _58
REMARK   25  A    between atoms: _58  and  _59
REMARK   26  A    between atoms: _59  and  _60
REMARK   27  A    between atoms: _60  and  _61
REMARK   28  A    between atoms: _65  and  _67
REMARK   29  A    between atoms: _67  and  _68
REMARK   30  A    between atoms: _67  and  _70
REMARK   31  A    between atoms: _70  and  _71
REMARK   32  A    between atoms: _71  and  _72
REMARK   33  A    between atoms: _75  and  _77
REMARK   34  A    between atoms: _77  and  _78
REMARK   35  A    between atoms: _77  and  _80
REMARK   36  A    between atoms: _80  and  _81
REMARK   37  A    between atoms: _84  and  _86
REMARK   38  A    between atoms: _86  and  _87
REMARK   39  A    between atoms: _86  and  _89
REMARK   40  A    between atoms: _89  and  _90
REMARK   41  A    between atoms: _95  and  _96
REMARK   42  A    between atoms: _98  and  _100
REMARK   43  A    between atoms: _100  and  _101
REMARK   44  A    between atoms: _100  and  _103
REMARK   45  A    between atoms: _103  and  _104
REMARK   46  A    between atoms: _107  and  _109
REMARK   47  A    between atoms: _109  and  _110
REMARK   48  A    between atoms: _109  and  _112
REMARK   49  A    between atoms: _112  and  _113
REMARK   50  A    between atoms: _116  and  _118
REMARK   51  A    between atoms: _118  and  _119
REMARK   52  A    between atoms: _118  and  _121
REMARK   53  A    between atoms: _124  and  _126
REMARK   54  A    between atoms: _126  and  _127
REMARK   55  A    between atoms: _126  and  _129
REMARK   56  A    between atoms: _129  and  _130
REMARK   57  A    between atoms: _130  and  _131
REMARK   58  A    between atoms: _131  and  _132
REMARK   59  A    between atoms: _141  and  _143
REMARK   60  A    between atoms: _143  and  _144
REMARK   61  A    between atoms: _143  and  _146
REMARK   62  A    between atoms: _146  and  _147
REMARK   63  A    between atoms: _152  and  _154
REMARK   64  A    between atoms: _154  and  _155
REMARK   65  A    between atoms: _154  and  _157
REMARK   66  A    between atoms: _157  and  _158
REMARK   67  A    between atoms: _158  and  _159
REMARK   68  A    between atoms: _162  and  _164
REMARK   69  A    between atoms: _164  and  _165
REMARK   70  A    between atoms: _164  and  _167
REMARK   71  A    between atoms: _167  and  _168
REMARK   72  A    between atoms: _168  and  _169
REMARK   73  A    between atoms: _169  and  _170
REMARK   74  A    between atoms: _170  and  _171
REMARK   75  A    between atoms: _175  and  _177
REMARK   76  A    between atoms: _177  and  _178
REMARK   77  A    between atoms: _180  and  _182
REMARK   78  A    between atoms: _182  and  _183
REMARK   79  A    between atoms: _182  and  _185
REMARK   80  A    between atoms: _188  and  _190
REMARK   81  A    between atoms: _190  and  _191
REMARK   82  A    between atoms: _190  and  _193
REMARK   83  A    between atoms: _193  and  _194
REMARK   84  A    between atoms: _196  and  _198
REMARK   85  A    between atoms: _198  and  _199
REMARK   86  A    between atoms: _198  and  _201
REMARK   87  A    between atoms: _201  and  _202
REMARK   88  A    between atoms: _204  and  _206
REMARK   89  A    between atoms: _206  and  _207
REMARK   90  A    between atoms: _206  and  _209
REMARK   91  A    between atoms: _209  and  _210
REMARK   92  A    between atoms: _216  and  _218
REMARK   93  A    between atoms: _218  and  _219
REMARK   94  A    between atoms: _218  and  _221
REMARK   95  A    between atoms: _221  and  _222
REMARK   96  A    between atoms: _225  and  _227
REMARK   97  A    between atoms: _227  and  _228
REMARK   98  A    between atoms: _227  and  _230
REMARK   99  A    between atoms: _230  and  _231
REMARK  100  A    between atoms: _234  and  _236
REMARK  101  A    between atoms: _236  and  _237
REMARK  102  A    between atoms: _236  and  _239
REMARK  103  A    between atoms: _239  and  _240
REMARK  104  A    between atoms: _243  and  _245
REMARK  105  A    between atoms: _245  and  _246
REMARK  106  A    between atoms: _245  and  _248
REMARK  107  A    between atoms: _248  and  _249
REMARK  108  A    between atoms: _249  and  _250
REMARK  109  A    between atoms: _252  and  _254
REMARK  110  A    between atoms: _254  and  _255
REMARK  111  A    between atoms: _254  and  _257
REMARK  112  A    between atoms: _257  and  _258
REMARK  113  A    between atoms: _264  and  _266
REMARK  114  A    between atoms: _266  and  _267
REMARK  115  A    between atoms: _266  and  _269
REMARK  116  A    between atoms: _271  and  _273
REMARK  117  A    between atoms: _273  and  _274
REMARK  118  A    between atoms: _277  and  _279
REMARK  119  A    between atoms: _279  and  _280
REMARK  120  A    between atoms: _282  and  _284
REMARK  121  A    between atoms: _284  and  _285
REMARK  122  A    between atoms: _284  and  _287
REMARK  123  A    between atoms: _287  and  _288
REMARK  124  A    between atoms: _288  and  _289
REMARK  125  A    between atoms: _292  and  _294
REMARK  126  A    between atoms: _294  and  _295
REMARK  127  A    between atoms: _294  and  _297
REMARK  128  A    between atoms: _297  and  _298
REMARK  129  A    between atoms: _301  and  _303
REMARK  130  A    between atoms: _303  and  _304
REMARK  131  A    between atoms: _307  and  _309
REMARK  132  A    between atoms: _309  and  _310
REMARK  133  A    between atoms: _309  and  _312
REMARK  134  A    between atoms: _312  and  _313
REMARK  135  A    between atoms: _313  and  _436
REMARK  136  A    between atoms: _314  and  _316
REMARK  137  A    between atoms: _316  and  _317
REMARK  138  A    between atoms: _316  and  _319
REMARK  139  A    between atoms: _319  and  _320
REMARK  140  A    between atoms: _320  and  _321
REMARK  141  A    between atoms: _326  and  _328
REMARK  142  A    between atoms: _328  and  _329
REMARK  143  A    between atoms: _331  and  _333
REMARK  144  A    between atoms: _333  and  _334
REMARK  145  A    between atoms: _333  and  _336
REMARK  146  A    between atoms: _336  and  _337
REMARK  147  A    between atoms: _340  and  _342
REMARK  148  A    between atoms: _342  and  _343
REMARK  149  A    between atoms: _342  and  _345
REMARK  150  A    between atoms: _345  and  _346
REMARK  151  A    between atoms: _348  and  _350
REMARK  152  A    between atoms: _350  and  _351
REMARK  153  A    between atoms: _353  and  _355
REMARK  154  A    between atoms: _355  and  _356
REMARK  155  A    between atoms: _358  and  _360
REMARK  156  A    between atoms: _360  and  _361
REMARK  157  A    between atoms: _360  and  _363
REMARK  158  A    between atoms: _363  and  _364
REMARK  159  A    between atoms: _369  and  _371
REMARK  160  A    between atoms: _371  and  _372
REMARK  161  A    between atoms: _371  and  _374
REMARK  162  A    between atoms: _374  and  _375
REMARK  163  A    between atoms: _378  and  _380
REMARK  164  A    between atoms: _380  and  _381
REMARK  165  A    between atoms: _380  and  _383
REMARK  166  A    between atoms: _386  and  _388
REMARK  167  A    between atoms: _388  and  _389
REMARK  168  A    between atoms: _388  and  _391
REMARK  169  A    between atoms: _391  and  _392
REMARK  170  A    between atoms: _394  and  _396
REMARK  171  A    between atoms: _396  and  _397
REMARK  172  A    between atoms: _396  and  _399
REMARK  173  A    between atoms: _399  and  _400
REMARK  174  A    between atoms: _410  and  _412
REMARK  175  A    between atoms: _412  and  _413
REMARK  176  A    between atoms: _415  and  _417
REMARK  177  A    between atoms: _417  and  _418
REMARK  178  A    between atoms: _417  and  _420
REMARK  179  A    between atoms: _420  and  _421
REMARK  180  A    between atoms: _421  and  _422
REMARK  181  A    between atoms: _425  and  _427
REMARK  182  A    between atoms: _427  and  _428
REMARK  183  A    between atoms: _430  and  _432
REMARK  184  A    between atoms: _432  and  _433
REMARK  185  A    between atoms: _432  and  _435
REMARK  186  A    between atoms: _435  and  _436
REMARK  187  A    between atoms: _437  and  _439
REMARK  188  A    between atoms: _439  and  _440
REMARK  189  A    between atoms: _443  and  _445
REMARK  190  A    between atoms: _445  and  _446
REMARK  191  A    between atoms: _445  and  _448
REMARK  192  A    between atoms: _448  and  _449
REMARK  193  A    between atoms: _449  and  _450
REMARK  194  A    between atoms: _450  and  _451
REMARK  195  A    between atoms: _460  and  _462
REMARK  196  A    between atoms: _462  and  _463
REMARK  197  A    between atoms: _462  and  _465
REMARK  198  A    between atoms: _465  and  _466
REMARK  199  A    between atoms: _466  and  _467
REMARK  200  A    between atoms: _467  and  _468
REMARK  201  A    between atoms: _468  and  _469
REMARK  202  A    between atoms: _473  and  _475
REMARK  203  A    between atoms: _475  and  _476
REMARK  204  A    between atoms: _475  and  _478
REMARK  205  A    between atoms: _478  and  _479
REMARK  206  A    between atoms: _484  and  _485
REMARK  207  A    between atoms: _487  and  _489
REMARK  208  A    between atoms: _489  and  _490
REMARK  209  A    between atoms: _492  and  _494
REMARK  210  A    between atoms: _494  and  _495
REMARK  211  A    between atoms: _494  and  _497
REMARK  212  A    between atoms: _497  and  _498
REMARK  213  A    between atoms: _501  and  _503
REMARK  214  A    between atoms: _503  and  _504
REMARK  215  A    between atoms: _503  and  _506
REMARK  216  A    between atoms: _506  and  _507
REMARK  217  A    between atoms: _512  and  _513
REMARK  218  A    between atoms: _515  and  _517
REMARK  219  A    between atoms: _517  and  _518
REMARK  220  A    between atoms: _517  and  _520
REMARK  221  A    between atoms: _520  and  _521
REMARK                            x       y       z     vdW  Elec       q    Type
REMARK                         _______ _______ _______ _____ _____    ______ ____
ROOT
ATOM      1  O   HOH     1      13.409  54.597   3.405  0.00  0.00    +0.000 OA
ENDROOT
TORSDOF 0
REMARK  Name = ../refined-set-2016/2vwo/2vwo_pocket.pdb
REMARK  221 active torsions:
REMARK  status: ('A' for Active; 'I' for Inactive)
REMARK    1  A    between atoms: _1  and  _5
REMARK    2  A    between atoms: _5  and  _6
REMARK    3  A    between atoms: _5  and  _8
REMARK    4  A    between atoms: _8  and  _9
REMARK    5  A    between atoms: _12  and  _14
REMARK    6  A    between atoms: _14  and  _15
REMARK    7  A    between atoms: _14  and  _17
REMARK    8  A    between atoms: _20  and  _22
REMARK    9  A    between atoms: _22  and  _23
REMARK   10  A    between atoms: _22  and  _25
REMARK   11  A    between atoms: _25  and  _26
REMARK   12  A    between atoms: _31  and  _33
REMARK   13  A    between atoms: _33  and  _34
REMARK   14  A    between atoms: _33  and  _36
REMARK   15  A    between atoms: _36  and  _37
REMARK   16  A    between atoms: _37  and  _38
REMARK   17  A    between atoms: _43  and  _45
REMARK   18  A    between atoms: _45  and  _46
REMARK   19  A    between atoms: _45  and  _48
REMARK   20  A    between atoms: _48  and  _49
REMARK   21  A    between atoms: _52  and  _54
REMARK   22  A    between atoms: _54  and  _55
REMARK   23  A    between atoms: _54  and  _57
REMARK   24  A    between atoms: _57  and  _58
REMARK   25  A    between atoms: _58  and  _59
REMARK   26  A    between atoms: _59  and  _60
REMARK   27  A    between atoms: _60  and  _61
REMARK   28  A    between atoms: _65  and  _67
REMARK   29  A    between atoms: _67  and  _68
REMARK   30  A    between atoms: _67  and  _70
REMARK   31  A    between atoms: _70  and  _71
REMARK   32  A    between atoms: _71  and  _72
REMARK   33  A    between atoms: _75  and  _77
REMARK   34  A    between atoms: _77  and  _78
REMARK   35  A    between atoms: _77  and  _80
REMARK   36  A    between atoms: _80  and  _81
REMARK   37  A    between atoms: _84  and  _86
REMARK   38  A    between atoms: _86  and  _87
REMARK   39  A    between atoms: _86  and  _89
REMARK   40  A    between atoms: _89  and  _90
REMARK   41  A    between atoms: _95  and  _96
REMARK   42  A    between atoms: _98  and  _100
REMARK   43  A    between atoms: _100  and  _101
REMARK   44  A    between atoms: _100  and  _103
REMARK   45  A    between atoms: _103  and  _104
REMARK   46  A    between atoms: _107  and  _109
REMARK   47  A    between atoms: _109  and  _110
REMARK   48  A    between atoms: _109  and  _112
REMARK   49  A    between atoms: _112  and  _113
REMARK   50  A    between atoms: _116  and  _118
REMARK   51  A    between atoms: _118  and  _119
REMARK   52  A    between atoms: _118  and  _121
REMARK   53  A    between atoms: _124  and  _126
REMARK   54  A    between atoms: _126  and  _127
REMARK   55  A    between atoms: _126  and  _129
REMARK   56  A    between atoms: _129  and  _130
REMARK   57  A    between atoms: _130  and  _131
REMARK   58  A    between atoms: _131  and  _132
REMARK   59  A    between atoms: _141  and  _143
REMARK   60  A    between atoms: _143  and  _144
REMARK   61  A    between atoms: _143  and  _146
REMARK   62  A    between atoms: _146  and  _147
REMARK   63  A    between atoms: _152  and  _154
REMARK   64  A    between atoms: _154  and  _155
REMARK   65  A    between atoms: _154  and  _157
REMARK   66  A    between atoms: _157  and  _158
REMARK   67  A    between atoms: _158  and  _159
REMARK   68  A    between atoms: _162  and  _164
REMARK   69  A    between atoms: _164  and  _165
REMARK   70  A    between atoms: _164  and  _167
REMARK   71  A    between atoms: _167  and  _168
REMARK   72  A    between atoms: _168  and  _169
REMARK   73  A    between atoms: _169  and  _170
REMARK   74  A    between atoms: _170  and  _171
REMARK   75  A    between atoms: _175  and  _177
REMARK   76  A    between atoms: _177  and  _178
REMARK   77  A    between atoms: _180  and  _182
REMARK   78  A    between atoms: _182  and  _183
REMARK   79  A    between atoms: _182  and  _185
REMARK   80  A    between atoms: _188  and  _190
REMARK   81  A    between atoms: _190  and  _191
REMARK   82  A    between atoms: _190  and  _193
REMARK   83  A    between atoms: _193  and  _194
REMARK   84  A    between atoms: _196  and  _198
REMARK   85  A    between atoms: _198  and  _199
REMARK   86  A    between atoms: _198  and  _201
REMARK   87  A    between atoms: _201  and  _202
REMARK   88  A    between atoms: _204  and  _206
REMARK   89  A    between atoms: _206  and  _207
REMARK   90  A    between atoms: _206  and  _209
REMARK   91  A    between atoms: _209  and  _210
REMARK   92  A    between atoms: _216  and  _218
REMARK   93  A    between atoms: _218  and  _219
REMARK   94  A    between atoms: _218  and  _221
REMARK   95  A    between atoms: _221  and  _222
REMARK   96  A    between atoms: _225  and  _227
REMARK   97  A    between atoms: _227  and  _228
REMARK   98  A    between atoms: _227  and  _230
REMARK   99  A    between atoms: _230  and  _231
REMARK  100  A    between atoms: _234  and  _236
REMARK  101  A    between atoms: _236  and  _237
REMARK  102  A    between atoms: _236  and  _239
REMARK  103  A    between atoms: _239  and  _240
REMARK  104  A    between atoms: _243  and  _245
REMARK  105  A    between atoms: _245  and  _246
REMARK  106  A    between atoms: _245  and  _248
REMARK  107  A    between atoms: _248  and  _249
REMARK  108  A    between atoms: _249  and  _250
REMARK  109  A    between atoms: _252  and  _254
REMARK  110  A    between atoms: _254  and  _255
REMARK  111  A    between atoms: _254  and  _257
REMARK  112  A    between atoms: _257  and  _258
REMARK  113  A    between atoms: _264  and  _266
REMARK  114  A    between atoms: _266  and  _267
REMARK  115  A    between atoms: _266  and  _269
REMARK  116  A    between atoms: _271  and  _273
REMARK  117  A    between atoms: _273  and  _274
REMARK  118  A    between atoms: _277  and  _279
REMARK  119  A    between atoms: _279  and  _280
REMARK  120  A    between atoms: _282  and  _284
REMARK  121  A    between atoms: _284  and  _285
REMARK  122  A    between atoms: _284  and  _287
REMARK  123  A    between atoms: _287  and  _288
REMARK  124  A    between atoms: _288  and  _289
REMARK  125  A    between atoms: _292  and  _294
REMARK  126  A    between atoms: _294  and  _295
REMARK  127  A    between atoms: _294  and  _297
REMARK  128  A    between atoms: _297  and  _298
REMARK  129  A    between atoms: _301  and  _303
REMARK  130  A    between atoms: _303  and  _304
REMARK  131  A    between atoms: _307  and  _309
REMARK  132  A    between atoms: _309  and  _310
REMARK  133  A    between atoms: _309  and  _312
REMARK  134  A    between atoms: _312  and  _313
REMARK  135  A    between atoms: _313  and  _436
REMARK  136  A    between atoms: _314  and  _316
REMARK  137  A    between atoms: _316  and  _317
REMARK  138  A    between atoms: _316  and  _319
REMARK  139  A    between atoms: _319  and  _320
REMARK  140  A    between atoms: _320  and  _321
REMARK  141  A    between atoms: _326  and  _328
REMARK  142  A    between atoms: _328  and  _329
REMARK  143  A    between atoms: _331  and  _333
REMARK  144  A    between atoms: _333  and  _334
REMARK  145  A    between atoms: _333  and  _336
REMARK  146  A    between atoms: _336  and  _337
REMARK  147  A    between atoms: _340  and  _342
REMARK  148  A    between atoms: _342  and  _343
REMARK  149  A    between atoms: _342  and  _345
REMARK  150  A    between atoms: _345  and  _346
REMARK  151  A    between atoms: _348  and  _350
REMARK  152  A    between atoms: _350  and  _351
REMARK  153  A    between atoms: _353  and  _355
REMARK  154  A    between atoms: _355  and  _356
REMARK  155  A    between atoms: _358  and  _360
REMARK  156  A    between atoms: _360  and  _361
REMARK  157  A    between atoms: _360  and  _363
REMARK  158  A    between atoms: _363  and  _364
REMARK  159  A    between atoms: _369  and  _371
REMARK  160  A    between atoms: _371  and  _372
REMARK  161  A    between atoms: _371  and  _374
REMARK  162  A    between atoms: _374  and  _375
REMARK  163  A    between atoms: _378  and  _380
REMARK  164  A    between atoms: _380  and  _381
REMARK  165  A    between atoms: _380  and  _383
REMARK  166  A    between atoms: _386  and  _388
REMARK  167  A    between atoms: _388  and  _389
REMARK  168  A    between atoms: _388  and  _391
REMARK  169  A    between atoms: _391  and  _392
REMARK  170  A    between atoms: _394  and  _396
REMARK  171  A    between atoms: _396  and  _397
REMARK  172  A    between atoms: _396  and  _399
REMARK  173  A    between atoms: _399  and  _400
REMARK  174  A    between atoms: _410  and  _412
REMARK  175  A    between atoms: _412  and  _413
REMARK  176  A    between atoms: _415  and  _417
REMARK  177  A    between atoms: _417  and  _418
REMARK  178  A    between atoms: _417  and  _420
REMARK  179  A    between atoms: _420  and  _421
REMARK  180  A    between atoms: _421  and  _422
REMARK  181  A    between atoms: _425  and  _427
REMARK  182  A    between atoms: _427  and  _428
REMARK  183  A    between atoms: _430  and  _432
REMARK  184  A    between atoms: _432  and  _433
REMARK  185  A    between atoms: _432  and  _435
REMARK  186  A    between atoms: _435  and  _436
REMARK  187  A    between atoms: _437  and  _439
REMARK  188  A    between atoms: _439  and  _440
REMARK  189  A    between atoms: _443  and  _445
REMARK  190  A    between atoms: _445  and  _446
REMARK  191  A    between atoms: _445  and  _448
REMARK  192  A    between atoms: _448  and  _449
REMARK  193  A    between atoms: _449  and  _450
REMARK  194  A    between atoms: _450  and  _451
REMARK  195  A    between atoms: _460  and  _462
REMARK  196  A    between atoms: _462  and  _463
REMARK  197  A    between atoms: _462  and  _465
REMARK  198  A    between atoms: _465  and  _466
REMARK  199  A    between atoms: _466  and  _467
REMARK  200  A    between atoms: _467  and  _468
REMARK  201  A    between atoms: _468  and  _469
REMARK  202  A    between atoms: _473  and  _475
REMARK  203  A    between atoms: _475  and  _476
REMARK  204  A    between atoms: _475  and  _478
REMARK  205  A    between atoms: _478  and  _479
REMARK  206  A    between atoms: _484  and  _485
REMARK  207  A    between atoms: _487  and  _489
REMARK  208  A    between atoms: _489  and  _490
REMARK  209  A    between atoms: _492  and  _494
REMARK  210  A    between atoms: _494  and  _495
REMARK  211  A    between atoms: _494  and  _497
REMARK  212  A    between atoms: _497  and  _498
REMARK  213  A    between atoms: _501  and  _503
REMARK  214  A    between atoms: _503  and  _504
REMARK  215  A    between atoms: _503  and  _506
REMARK  216  A    between atoms: _506  and  _507
REMARK  217  A    between atoms: _512  and  _513
REMARK  218  A    between atoms: _515  and  _517
REMARK  219  A    between atoms: _517  and  _518
REMARK  220  A    between atoms: _517  and  _520
REMARK  221  A    between atoms: _520  and  _521
REMARK                            x       y       z     vdW  Elec       q    Type
REMARK                         _______ _______ _______ _____ _____    ______ ____
ROOT
ATOM      1  O   HOH     1      10.816  62.645  -0.962  0.00  0.00    +0.000 OA
ENDROOT
TORSDOF 0
REMARK  Name = ../refined-set-2016/2vwo/2vwo_pocket.pdb
REMARK  221 active torsions:
REMARK  status: ('A' for Active; 'I' for Inactive)
REMARK    1  A    between atoms: _1  and  _5
REMARK    2  A    between atoms: _5  and  _6
REMARK    3  A    between atoms: _5  and  _8
REMARK    4  A    between atoms: _8  and  _9
REMARK    5  A    between atoms: _12  and  _14
REMARK    6  A    between atoms: _14  and  _15
REMARK    7  A    between atoms: _14  and  _17
REMARK    8  A    between atoms: _20  and  _22
REMARK    9  A    between atoms: _22  and  _23
REMARK   10  A    between atoms: _22  and  _25
REMARK   11  A    between atoms: _25  and  _26
REMARK   12  A    between atoms: _31  and  _33
REMARK   13  A    between atoms: _33  and  _34
REMARK   14  A    between atoms: _33  and  _36
REMARK   15  A    between atoms: _36  and  _37
REMARK   16  A    between atoms: _37  and  _38
REMARK   17  A    between atoms: _43  and  _45
REMARK   18  A    between atoms: _45  and  _46
REMARK   19  A    between atoms: _45  and  _48
REMARK   20  A    between atoms: _48  and  _49
REMARK   21  A    between atoms: _52  and  _54
REMARK   22  A    between atoms: _54  and  _55
REMARK   23  A    between atoms: _54  and  _57
REMARK   24  A    between atoms: _57  and  _58
REMARK   25  A    between atoms: _58  and  _59
REMARK   26  A    between atoms: _59  and  _60
REMARK   27  A    between atoms: _60  and  _61
REMARK   28  A    between atoms: _65  and  _67
REMARK   29  A    between atoms: _67  and  _68
REMARK   30  A    between atoms: _67  and  _70
REMARK   31  A    between atoms: _70  and  _71
REMARK   32  A    between atoms: _71  and  _72
REMARK   33  A    between atoms: _75  and  _77
REMARK   34  A    between atoms: _77  and  _78
REMARK   35  A    between atoms: _77  and  _80
REMARK   36  A    between atoms: _80  and  _81
REMARK   37  A    between atoms: _84  and  _86
REMARK   38  A    between atoms: _86  and  _87
REMARK   39  A    between atoms: _86  and  _89
REMARK   40  A    between atoms: _89  and  _90
REMARK   41  A    between atoms: _95  and  _96
REMARK   42  A    between atoms: _98  and  _100
REMARK   43  A    between atoms: _100  and  _101
REMARK   44  A    between atoms: _100  and  _103
REMARK   45  A    between atoms: _103  and  _104
REMARK   46  A    between atoms: _107  and  _109
REMARK   47  A    between atoms: _109  and  _110
REMARK   48  A    between atoms: _109  and  _112
REMARK   49  A    between atoms: _112  and  _113
REMARK   50  A    between atoms: _116  and  _118
REMARK   51  A    between atoms: _118  and  _119
REMARK   52  A    between atoms: _118  and  _121
REMARK   53  A    between atoms: _124  and  _126
REMARK   54  A    between atoms: _126  and  _127
REMARK   55  A    between atoms: _126  and  _129
REMARK   56  A    between atoms: _129  and  _130
REMARK   57  A    between atoms: _130  and  _131
REMARK   58  A    between atoms: _131  and  _132
REMARK   59  A    between atoms: _141  and  _143
REMARK   60  A    between atoms: _143  and  _144
REMARK   61  A    between atoms: _143  and  _146
REMARK   62  A    between atoms: _146  and  _147
REMARK   63  A    between atoms: _152  and  _154
REMARK   64  A    between atoms: _154  and  _155
REMARK   65  A    between atoms: _154  and  _157
REMARK   66  A    between atoms: _157  and  _158
REMARK   67  A    between atoms: _158  and  _159
REMARK   68  A    between atoms: _162  and  _164
REMARK   69  A    between atoms: _164  and  _165
REMARK   70  A    between atoms: _164  and  _167
REMARK   71  A    between atoms: _167  and  _168
REMARK   72  A    between atoms: _168  and  _169
REMARK   73  A    between atoms: _169  and  _170
REMARK   74  A    between atoms: _170  and  _171
REMARK   75  A    between atoms: _175  and  _177
REMARK   76  A    between atoms: _177  and  _178
REMARK   77  A    between atoms: _180  and  _182
REMARK   78  A    between atoms: _182  and  _183
REMARK   79  A    between atoms: _182  and  _185
REMARK   80  A    between atoms: _188  and  _190
REMARK   81  A    between atoms: _190  and  _191
REMARK   82  A    between atoms: _190  and  _193
REMARK   83  A    between atoms: _193  and  _194
REMARK   84  A    between atoms: _196  and  _198
REMARK   85  A    between atoms: _198  and  _199
REMARK   86  A    between atoms: _198  and  _201
REMARK   87  A    between atoms: _201  and  _202
REMARK   88  A    between atoms: _204  and  _206
REMARK   89  A    between atoms: _206  and  _207
REMARK   90  A    between atoms: _206  and  _209
REMARK   91  A    between atoms: _209  and  _210
REMARK   92  A    between atoms: _216  and  _218
REMARK   93  A    between atoms: _218  and  _219
REMARK   94  A    between atoms: _218  and  _221
REMARK   95  A    between atoms: _221  and  _222
REMARK   96  A    between atoms: _225  and  _227
REMARK   97  A    between atoms: _227  and  _228
REMARK   98  A    between atoms: _227  and  _230
REMARK   99  A    between atoms: _230  and  _231
REMARK  100  A    between atoms: _234  and  _236
REMARK  101  A    between atoms: _236  and  _237
REMARK  102  A    between atoms: _236  and  _239
REMARK  103  A    between atoms: _239  and  _240
REMARK  104  A    between atoms: _243  and  _245
REMARK  105  A    between atoms: _245  and  _246
REMARK  106  A    between atoms: _245  and  _248
REMARK  107  A    between atoms: _248  and  _249
REMARK  108  A    between atoms: _249  and  _250
REMARK  109  A    between atoms: _252  and  _254
REMARK  110  A    between atoms: _254  and  _255
REMARK  111  A    between atoms: _254  and  _257
REMARK  112  A    between atoms: _257  and  _258
REMARK  113  A    between atoms: _264  and  _266
REMARK  114  A    between atoms: _266  and  _267
REMARK  115  A    between atoms: _266  and  _269
REMARK  116  A    between atoms: _271  and  _273
REMARK  117  A    between atoms: _273  and  _274
REMARK  118  A    between atoms: _277  and  _279
REMARK  119  A    between atoms: _279  and  _280
REMARK  120  A    between atoms: _282  and  _284
REMARK  121  A    between atoms: _284  and  _285
REMARK  122  A    between atoms: _284  and  _287
REMARK  123  A    between atoms: _287  and  _288
REMARK  124  A    between atoms: _288  and  _289
REMARK  125  A    between atoms: _292  and  _294
REMARK  126  A    between atoms: _294  and  _295
REMARK  127  A    between atoms: _294  and  _297
REMARK  128  A    between atoms: _297  and  _298
REMARK  129  A    between atoms: _301  and  _303
REMARK  130  A    between atoms: _303  and  _304
REMARK  131  A    between atoms: _307  and  _309
REMARK  132  A    between atoms: _309  and  _310
REMARK  133  A    between atoms: _309  and  _312
REMARK  134  A    between atoms: _312  and  _313
REMARK  135  A    between atoms: _313  and  _436
REMARK  136  A    between atoms: _314  and  _316
REMARK  137  A    between atoms: _316  and  _317
REMARK  138  A    between atoms: _316  and  _319
REMARK  139  A    between atoms: _319  and  _320
REMARK  140  A    between atoms: _320  and  _321
REMARK  141  A    between atoms: _326  and  _328
REMARK  142  A    between atoms: _328  and  _329
REMARK  143  A    between atoms: _331  and  _333
REMARK  144  A    between atoms: _333  and  _334
REMARK  145  A    between atoms: _333  and  _336
REMARK  146  A    between atoms: _336  and  _337
REMARK  147  A    between atoms: _340  and  _342
REMARK  148  A    between atoms: _342  and  _343
REMARK  149  A    between atoms: _342  and  _345
REMARK  150  A    between atoms: _345  and  _346
REMARK  151  A    between atoms: _348  and  _350
REMARK  152  A    between atoms: _350  and  _351
REMARK  153  A    between atoms: _353  and  _355
REMARK  154  A    between atoms: _355  and  _356
REMARK  155  A    between atoms: _358  and  _360
REMARK  156  A    between atoms: _360  and  _361
REMARK  157  A    between atoms: _360  and  _363
REMARK  158  A    between atoms: _363  and  _364
REMARK  159  A    between atoms: _369  and  _371
REMARK  160  A    between atoms: _371  and  _372
REMARK  161  A    between atoms: _371  and  _374
REMARK  162  A    between atoms: _374  and  _375
REMARK  163  A    between atoms: _378  and  _380
REMARK  164  A    between atoms: _380  and  _381
REMARK  165  A    between atoms: _380  and  _383
REMARK  166  A    between atoms: _386  and  _388
REMARK  167  A    between atoms: _388  and  _389
REMARK  168  A    between atoms: _388  and  _391
REMARK  169  A    between atoms: _391  and  _392
REMARK  170  A    between atoms: _394  and  _396
REMARK  171  A    between atoms: _396  and  _397
REMARK  172  A    between atoms: _396  and  _399
REMARK  173  A    between atoms: _399  and  _400
REMARK  174  A    between atoms: _410  and  _412
REMARK  175  A    between atoms: _412  and  _413
REMARK  176  A    between atoms: _415  and  _417
REMARK  177  A    between atoms: _417  and  _418
REMARK  178  A    between atoms: _417  and  _420
REMARK  179  A    between atoms: _420  and  _421
REMARK  180  A    between atoms: _421  and  _422
REMARK  181  A    between atoms: _425  and  _427
REMARK  182  A    between atoms: _427  and  _428
REMARK  183  A    between atoms: _430  and  _432
REMARK  184  A    between atoms: _432  and  _433
REMARK  185  A    between atoms: _432  and  _435
REMARK  186  A    between atoms: _435  and  _436
REMARK  187  A    between atoms: _437  and  _439
REMARK  188  A    between atoms: _439  and  _440
REMARK  189  A    between atoms: _443  and  _445
REMARK  190  A    between atoms: _445  and  _446
REMARK  191  A    between atoms: _445  and  _448
REMARK  192  A    between atoms: _448  and  _449
REMARK  193  A    between atoms: _449  and  _450
REMARK  194  A    between atoms: _450  and  _451
REMARK  195  A    between atoms: _460  and  _462
REMARK  196  A    between atoms: _462  and  _463
REMARK  197  A    between atoms: _462  and  _465
REMARK  198  A    between atoms: _465  and  _466
REMARK  199  A    between atoms: _466  and  _467
REMARK  200  A    between atoms: _467  and  _468
REMARK  201  A    between atoms: _468  and  _469
REMARK  202  A    between atoms: _473  and  _475
REMARK  203  A    between atoms: _475  and  _476
REMARK  204  A    between atoms: _475  and  _478
REMARK  205  A    between atoms: _478  and  _479
REMARK  206  A    between atoms: _484  and  _485
REMARK  207  A    between atoms: _487  and  _489
REMARK  208  A    between atoms: _489  and  _490
REMARK  209  A    between atoms: _492  and  _494
REMARK  210  A    between atoms: _494  and  _495
REMARK  211  A    between atoms: _494  and  _497
REMARK  212  A    between atoms: _497  and  _498
REMARK  213  A    between atoms: _501  and  _503
REMARK  214  A    between atoms: _503  and  _504
REMARK  215  A    between atoms: _503  and  _506
REMARK  216  A    between atoms: _506  and  _507
REMARK  217  A    between atoms: _512  and  _513
REMARK  218  A    between atoms: _515  and  _517
REMARK  219  A    between atoms: _517  and  _518
REMARK  220  A    between atoms: _517  and  _520
REMARK  221  A    between atoms: _520  and  _521
REMARK                            x       y       z     vdW  Elec       q    Type
REMARK                         _______ _______ _______ _____ _____    ______ ____
ROOT
ATOM      1  O   HOH     1      13.397  73.695  -1.766  0.00  0.00    +0.000 OA
ENDROOT
TORSDOF 0
REMARK  Name = ../refined-set-2016/2vwo/2vwo_pocket.pdb
REMARK  221 active torsions:
REMARK  status: ('A' for Active; 'I' for Inactive)
REMARK    1  A    between atoms: _1  and  _5
REMARK    2  A    between atoms: _5  and  _6
REMARK    3  A    between atoms: _5  and  _8
REMARK    4  A    between atoms: _8  and  _9
REMARK    5  A    between atoms: _12  and  _14
REMARK    6  A    between atoms: _14  and  _15
REMARK    7  A    between atoms: _14  and  _17
REMARK    8  A    between atoms: _20  and  _22
REMARK    9  A    between atoms: _22  and  _23
REMARK   10  A    between atoms: _22  and  _25
REMARK   11  A    between atoms: _25  and  _26
REMARK   12  A    between atoms: _31  and  _33
REMARK   13  A    between atoms: _33  and  _34
REMARK   14  A    between atoms: _33  and  _36
REMARK   15  A    between atoms: _36  and  _37
REMARK   16  A    between atoms: _37  and  _38
REMARK   17  A    between atoms: _43  and  _45
REMARK   18  A    between atoms: _45  and  _46
REMARK   19  A    between atoms: _45  and  _48
REMARK   20  A    between atoms: _48  and  _49
REMARK   21  A    between atoms: _52  and  _54
REMARK   22  A    between atoms: _54  and  _55
REMARK   23  A    between atoms: _54  and  _57
REMARK   24  A    between atoms: _57  and  _58
REMARK   25  A    between atoms: _58  and  _59
REMARK   26  A    between atoms: _59  and  _60
REMARK   27  A    between atoms: _60  and  _61
REMARK   28  A    between atoms: _65  and  _67
REMARK   29  A    between atoms: _67  and  _68
REMARK   30  A    between atoms: _67  and  _70
REMARK   31  A    between atoms: _70  and  _71
REMARK   32  A    between atoms: _71  and  _72
REMARK   33  A    between atoms: _75  and  _77
REMARK   34  A    between atoms: _77  and  _78
REMARK   35  A    between atoms: _77  and  _80
REMARK   36  A    between atoms: _80  and  _81
REMARK   37  A    between atoms: _84  and  _86
REMARK   38  A    between atoms: _86  and  _87
REMARK   39  A    between atoms: _86  and  _89
REMARK   40  A    between atoms: _89  and  _90
REMARK   41  A    between atoms: _95  and  _96
REMARK   42  A    between atoms: _98  and  _100
REMARK   43  A    between atoms: _100  and  _101
REMARK   44  A    between atoms: _100  and  _103
REMARK   45  A    between atoms: _103  and  _104
REMARK   46  A    between atoms: _107  and  _109
REMARK   47  A    between atoms: _109  and  _110
REMARK   48  A    between atoms: _109  and  _112
REMARK   49  A    between atoms: _112  and  _113
REMARK   50  A    between atoms: _116  and  _118
REMARK   51  A    between atoms: _118  and  _119
REMARK   52  A    between atoms: _118  and  _121
REMARK   53  A    between atoms: _124  and  _126
REMARK   54  A    between atoms: _126  and  _127
REMARK   55  A    between atoms: _126  and  _129
REMARK   56  A    between atoms: _129  and  _130
REMARK   57  A    between atoms: _130  and  _131
REMARK   58  A    between atoms: _131  and  _132
REMARK   59  A    between atoms: _141  and  _143
REMARK   60  A    between atoms: _143  and  _144
REMARK   61  A    between atoms: _143  and  _146
REMARK   62  A    between atoms: _146  and  _147
REMARK   63  A    between atoms: _152  and  _154
REMARK   64  A    between atoms: _154  and  _155
REMARK   65  A    between atoms: _154  and  _157
REMARK   66  A    between atoms: _157  and  _158
REMARK   67  A    between atoms: _158  and  _159
REMARK   68  A    between atoms: _162  and  _164
REMARK   69  A    between atoms: _164  and  _165
REMARK   70  A    between atoms: _164  and  _167
REMARK   71  A    between atoms: _167  and  _168
REMARK   72  A    between atoms: _168  and  _169
REMARK   73  A    between atoms: _169  and  _170
REMARK   74  A    between atoms: _170  and  _171
REMARK   75  A    between atoms: _175  and  _177
REMARK   76  A    between atoms: _177  and  _178
REMARK   77  A    between atoms: _180  and  _182
REMARK   78  A    between atoms: _182  and  _183
REMARK   79  A    between atoms: _182  and  _185
REMARK   80  A    between atoms: _188  and  _190
REMARK   81  A    between atoms: _190  and  _191
REMARK   82  A    between atoms: _190  and  _193
REMARK   83  A    between atoms: _193  and  _194
REMARK   84  A    between atoms: _196  and  _198
REMARK   85  A    between atoms: _198  and  _199
REMARK   86  A    between atoms: _198  and  _201
REMARK   87  A    between atoms: _201  and  _202
REMARK   88  A    between atoms: _204  and  _206
REMARK   89  A    between atoms: _206  and  _207
REMARK   90  A    between atoms: _206  and  _209
REMARK   91  A    between atoms: _209  and  _210
REMARK   92  A    between atoms: _216  and  _218
REMARK   93  A    between atoms: _218  and  _219
REMARK   94  A    between atoms: _218  and  _221
REMARK   95  A    between atoms: _221  and  _222
REMARK   96  A    between atoms: _225  and  _227
REMARK   97  A    between atoms: _227  and  _228
REMARK   98  A    between atoms: _227  and  _230
REMARK   99  A    between atoms: _230  and  _231
REMARK  100  A    between atoms: _234  and  _236
REMARK  101  A    between atoms: _236  and  _237
REMARK  102  A    between atoms: _236  and  _239
REMARK  103  A    between atoms: _239  and  _240
REMARK  104  A    between atoms: _243  and  _245
REMARK  105  A    between atoms: _245  and  _246
REMARK  106  A    between atoms: _245  and  _248
REMARK  107  A    between atoms: _248  and  _249
REMARK  108  A    between atoms: _249  and  _250
REMARK  109  A    between atoms: _252  and  _254
REMARK  110  A    between atoms: _254  and  _255
REMARK  111  A    between atoms: _254  and  _257
REMARK  112  A    between atoms: _257  and  _258
REMARK  113  A    between atoms: _264  and  _266
REMARK  114  A    between atoms: _266  and  _267
REMARK  115  A    between atoms: _266  and  _269
REMARK  116  A    between atoms: _271  and  _273
REMARK  117  A    between atoms: _273  and  _274
REMARK  118  A    between atoms: _277  and  _279
REMARK  119  A    between atoms: _279  and  _280
REMARK  120  A    between atoms: _282  and  _284
REMARK  121  A    between atoms: _284  and  _285
REMARK  122  A    between atoms: _284  and  _287
REMARK  123  A    between atoms: _287  and  _288
REMARK  124  A    between atoms: _288  and  _289
REMARK  125  A    between atoms: _292  and  _294
REMARK  126  A    between atoms: _294  and  _295
REMARK  127  A    between atoms: _294  and  _297
REMARK  128  A    between atoms: _297  and  _298
REMARK  129  A    between atoms: _301  and  _303
REMARK  130  A    between atoms: _303  and  _304
REMARK  131  A    between atoms: _307  and  _309
REMARK  132  A    between atoms: _309  and  _310
REMARK  133  A    between atoms: _309  and  _312
REMARK  134  A    between atoms: _312  and  _313
REMARK  135  A    between atoms: _313  and  _436
REMARK  136  A    between atoms: _314  and  _316
REMARK  137  A    between atoms: _316  and  _317
REMARK  138  A    between atoms: _316  and  _319
REMARK  139  A    between atoms: _319  and  _320
REMARK  140  A    between atoms: _320  and  _321
REMARK  141  A    between atoms: _326  and  _328
REMARK  142  A    between atoms: _328  and  _329
REMARK  143  A    between atoms: _331  and  _333
REMARK  144  A    between atoms: _333  and  _334
REMARK  145  A    between atoms: _333  and  _336
REMARK  146  A    between atoms: _336  and  _337
REMARK  147  A    between atoms: _340  and  _342
REMARK  148  A    between atoms: _342  and  _343
REMARK  149  A    between atoms: _342  and  _345
REMARK  150  A    between atoms: _345  and  _346
REMARK  151  A    between atoms: _348  and  _350
REMARK  152  A    between atoms: _350  and  _351
REMARK  153  A    between atoms: _353  and  _355
REMARK  154  A    between atoms: _355  and  _356
REMARK  155  A    between atoms: _358  and  _360
REMARK  156  A    between atoms: _360  and  _361
REMARK  157  A    between atoms: _360  and  _363
REMARK  158  A    between atoms: _363  and  _364
REMARK  159  A    between atoms: _369  and  _371
REMARK  160  A    between atoms: _371  and  _372
REMARK  161  A    between atoms: _371  and  _374
REMARK  162  A    between atoms: _374  and  _375
REMARK  163  A    between atoms: _378  and  _380
REMARK  164  A    between atoms: _380  and  _381
REMARK  165  A    between atoms: _380  and  _383
REMARK  166  A    between atoms: _386  and  _388
REMARK  167  A    between atoms: _388  and  _389
REMARK  168  A    between atoms: _388  and  _391
REMARK  169  A    between atoms: _391  and  _392
REMARK  170  A    between atoms: _394  and  _396
REMARK  171  A    between atoms: _396  and  _397
REMARK  172  A    between atoms: _396  and  _399
REMARK  173  A    between atoms: _399  and  _400
REMARK  174  A    between atoms: _410  and  _412
REMARK  175  A    between atoms: _412  and  _413
REMARK  176  A    between atoms: _415  and  _417
REMARK  177  A    between atoms: _417  and  _418
REMARK  178  A    between atoms: _417  and  _420
REMARK  179  A    between atoms: _420  and  _421
REMARK  180  A    between atoms: _421  and  _422
REMARK  181  A    between atoms: _425  and  _427
REMARK  182  A    between atoms: _427  and  _428
REMARK  183  A    between atoms: _430  and  _432
REMARK  184  A    between atoms: _432  and  _433
REMARK  185  A    between atoms: _432  and  _435
REMARK  186  A    between atoms: _435  and  _436
REMARK  187  A    between atoms: _437  and  _439
REMARK  188  A    between atoms: _439  and  _440
REMARK  189  A    between atoms: _443  and  _445
REMARK  190  A    between atoms: _445  and  _446
REMARK  191  A    between atoms: _445  and  _448
REMARK  192  A    between atoms: _448  and  _449
REMARK  193  A    between atoms: _449  and  _450
REMARK  194  A    between atoms: _450  and  _451
REMARK  195  A    between atoms: _460  and  _462
REMARK  196  A    between atoms: _462  and  _463
REMARK  197  A    between atoms: _462  and  _465
REMARK  198  A    between atoms: _465  and  _466
REMARK  199  A    between atoms: _466  and  _467
REMARK  200  A    between atoms: _467  and  _468
REMARK  201  A    between atoms: _468  and  _469
REMARK  202  A    between atoms: _473  and  _475
REMARK  203  A    between atoms: _475  and  _476
REMARK  204  A    between atoms: _475  and  _478
REMARK  205  A    between atoms: _478  and  _479
REMARK  206  A    between atoms: _484  and  _485
REMARK  207  A    between atoms: _487  and  _489
REMARK  208  A    between atoms: _489  and  _490
REMARK  209  A    between atoms: _492  and  _494
REMARK  210  A    between atoms: _494  and  _495
REMARK  211  A    between atoms: _494  and  _497
REMARK  212  A    between atoms: _497  and  _498
REMARK  213  A    between atoms: _501  and  _503
REMARK  214  A    between atoms: _503  and  _504
REMARK  215  A    between atoms: _503  and  _506
REMARK  216  A    between atoms: _506  and  _507
REMARK  217  A    between atoms: _512  and  _513
REMARK  218  A    between atoms: _515  and  _517
REMARK  219  A    between atoms: _517  and  _518
REMARK  220  A    between atoms: _517  and  _520
REMARK  221  A    between atoms: _520  and  _521
REMARK                            x       y       z     vdW  Elec       q    Type
REMARK                         _______ _______ _______ _____ _____    ______ ____
ROOT
ATOM      1  O   HOH     1      12.455  73.234  10.538  0.00  0.00    +0.000 OA
ENDROOT
TORSDOF 0
REMARK  Name = ../refined-set-2016/2vwo/2vwo_pocket.pdb
REMARK  221 active torsions:
REMARK  status: ('A' for Active; 'I' for Inactive)
REMARK    1  A    between atoms: _1  and  _5
REMARK    2  A    between atoms: _5  and  _6
REMARK    3  A    between atoms: _5  and  _8
REMARK    4  A    between atoms: _8  and  _9
REMARK    5  A    between atoms: _12  and  _14
REMARK    6  A    between atoms: _14  and  _15
REMARK    7  A    between atoms: _14  and  _17
REMARK    8  A    between atoms: _20  and  _22
REMARK    9  A    between atoms: _22  and  _23
REMARK   10  A    between atoms: _22  and  _25
REMARK   11  A    between atoms: _25  and  _26
REMARK   12  A    between atoms: _31  and  _33
REMARK   13  A    between atoms: _33  and  _34
REMARK   14  A    between atoms: _33  and  _36
REMARK   15  A    between atoms: _36  and  _37
REMARK   16  A    between atoms: _37  and  _38
REMARK   17  A    between atoms: _43  and  _45
REMARK   18  A    between atoms: _45  and  _46
REMARK   19  A    between atoms: _45  and  _48
REMARK   20  A    between atoms: _48  and  _49
REMARK   21  A    between atoms: _52  and  _54
REMARK   22  A    between atoms: _54  and  _55
REMARK   23  A    between atoms: _54  and  _57
REMARK   24  A    between atoms: _57  and  _58
REMARK   25  A    between atoms: _58  and  _59
REMARK   26  A    between atoms: _59  and  _60
REMARK   27  A    between atoms: _60  and  _61
REMARK   28  A    between atoms: _65  and  _67
REMARK   29  A    between atoms: _67  and  _68
REMARK   30  A    between atoms: _67  and  _70
REMARK   31  A    between atoms: _70  and  _71
REMARK   32  A    between atoms: _71  and  _72
REMARK   33  A    between atoms: _75  and  _77
REMARK   34  A    between atoms: _77  and  _78
REMARK   35  A    between atoms: _77  and  _80
REMARK   36  A    between atoms: _80  and  _81
REMARK   37  A    between atoms: _84  and  _86
REMARK   38  A    between atoms: _86  and  _87
REMARK   39  A    between atoms: _86  and  _89
REMARK   40  A    between atoms: _89  and  _90
REMARK   41  A    between atoms: _95  and  _96
REMARK   42  A    between atoms: _98  and  _100
REMARK   43  A    between atoms: _100  and  _101
REMARK   44  A    between atoms: _100  and  _103
REMARK   45  A    between atoms: _103  and  _104
REMARK   46  A    between atoms: _107  and  _109
REMARK   47  A    between atoms: _109  and  _110
REMARK   48  A    between atoms: _109  and  _112
REMARK   49  A    between atoms: _112  and  _113
REMARK   50  A    between atoms: _116  and  _118
REMARK   51  A    between atoms: _118  and  _119
REMARK   52  A    between atoms: _118  and  _121
REMARK   53  A    between atoms: _124  and  _126
REMARK   54  A    between atoms: _126  and  _127
REMARK   55  A    between atoms: _126  and  _129
REMARK   56  A    between atoms: _129  and  _130
REMARK   57  A    between atoms: _130  and  _131
REMARK   58  A    between atoms: _131  and  _132
REMARK   59  A    between atoms: _141  and  _143
REMARK   60  A    between atoms: _143  and  _144
REMARK   61  A    between atoms: _143  and  _146
REMARK   62  A    between atoms: _146  and  _147
REMARK   63  A    between atoms: _152  and  _154
REMARK   64  A    between atoms: _154  and  _155
REMARK   65  A    between atoms: _154  and  _157
REMARK   66  A    between atoms: _157  and  _158
REMARK   67  A    between atoms: _158  and  _159
REMARK   68  A    between atoms: _162  and  _164
REMARK   69  A    between atoms: _164  and  _165
REMARK   70  A    between atoms: _164  and  _167
REMARK   71  A    between atoms: _167  and  _168
REMARK   72  A    between atoms: _168  and  _169
REMARK   73  A    between atoms: _169  and  _170
REMARK   74  A    between atoms: _170  and  _171
REMARK   75  A    between atoms: _175  and  _177
REMARK   76  A    between atoms: _177  and  _178
REMARK   77  A    between atoms: _180  and  _182
REMARK   78  A    between atoms: _182  and  _183
REMARK   79  A    between atoms: _182  and  _185
REMARK   80  A    between atoms: _188  and  _190
REMARK   81  A    between atoms: _190  and  _191
REMARK   82  A    between atoms: _190  and  _193
REMARK   83  A    between atoms: _193  and  _194
REMARK   84  A    between atoms: _196  and  _198
REMARK   85  A    between atoms: _198  and  _199
REMARK   86  A    between atoms: _198  and  _201
REMARK   87  A    between atoms: _201  and  _202
REMARK   88  A    between atoms: _204  and  _206
REMARK   89  A    between atoms: _206  and  _207
REMARK   90  A    between atoms: _206  and  _209
REMARK   91  A    between atoms: _209  and  _210
REMARK   92  A    between atoms: _216  and  _218
REMARK   93  A    between atoms: _218  and  _219
REMARK   94  A    between atoms: _218  and  _221
REMARK   95  A    between atoms: _221  and  _222
REMARK   96  A    between atoms: _225  and  _227
REMARK   97  A    between atoms: _227  and  _228
REMARK   98  A    between atoms: _227  and  _230
REMARK   99  A    between atoms: _230  and  _231
REMARK  100  A    between atoms: _234  and  _236
REMARK  101  A    between atoms: _236  and  _237
REMARK  102  A    between atoms: _236  and  _239
REMARK  103  A    between atoms: _239  and  _240
REMARK  104  A    between atoms: _243  and  _245
REMARK  105  A    between atoms: _245  and  _246
REMARK  106  A    between atoms: _245  and  _248
REMARK  107  A    between atoms: _248  and  _249
REMARK  108  A    between atoms: _249  and  _250
REMARK  109  A    between atoms: _252  and  _254
REMARK  110  A    between atoms: _254  and  _255
REMARK  111  A    between atoms: _254  and  _257
REMARK  112  A    between atoms: _257  and  _258
REMARK  113  A    between atoms: _264  and  _266
REMARK  114  A    between atoms: _266  and  _267
REMARK  115  A    between atoms: _266  and  _269
REMARK  116  A    between atoms: _271  and  _273
REMARK  117  A    between atoms: _273  and  _274
REMARK  118  A    between atoms: _277  and  _279
REMARK  119  A    between atoms: _279  and  _280
REMARK  120  A    between atoms: _282  and  _284
REMARK  121  A    between atoms: _284  and  _285
REMARK  122  A    between atoms: _284  and  _287
REMARK  123  A    between atoms: _287  and  _288
REMARK  124  A    between atoms: _288  and  _289
REMARK  125  A    between atoms: _292  and  _294
REMARK  126  A    between atoms: _294  and  _295
REMARK  127  A    between atoms: _294  and  _297
REMARK  128  A    between atoms: _297  and  _298
REMARK  129  A    between atoms: _301  and  _303
REMARK  130  A    between atoms: _303  and  _304
REMARK  131  A    between atoms: _307  and  _309
REMARK  132  A    between atoms: _309  and  _310
REMARK  133  A    between atoms: _309  and  _312
REMARK  134  A    between atoms: _312  and  _313
REMARK  135  A    between atoms: _313  and  _436
REMARK  136  A    between atoms: _314  and  _316
REMARK  137  A    between atoms: _316  and  _317
REMARK  138  A    between atoms: _316  and  _319
REMARK  139  A    between atoms: _319  and  _320
REMARK  140  A    between atoms: _320  and  _321
REMARK  141  A    between atoms: _326  and  _328
REMARK  142  A    between atoms: _328  and  _329
REMARK  143  A    between atoms: _331  and  _333
REMARK  144  A    between atoms: _333  and  _334
REMARK  145  A    between atoms: _333  and  _336
REMARK  146  A    between atoms: _336  and  _337
REMARK  147  A    between atoms: _340  and  _342
REMARK  148  A    between atoms: _342  and  _343
REMARK  149  A    between atoms: _342  and  _345
REMARK  150  A    between atoms: _345  and  _346
REMARK  151  A    between atoms: _348  and  _350
REMARK  152  A    between atoms: _350  and  _351
REMARK  153  A    between atoms: _353  and  _355
REMARK  154  A    between atoms: _355  and  _356
REMARK  155  A    between atoms: _358  and  _360
REMARK  156  A    between atoms: _360  and  _361
REMARK  157  A    between atoms: _360  and  _363
REMARK  158  A    between atoms: _363  and  _364
REMARK  159  A    between atoms: _369  and  _371
REMARK  160  A    between atoms: _371  and  _372
REMARK  161  A    between atoms: _371  and  _374
REMARK  162  A    between atoms: _374  and  _375
REMARK  163  A    between atoms: _378  and  _380
REMARK  164  A    between atoms: _380  and  _381
REMARK  165  A    between atoms: _380  and  _383
REMARK  166  A    between atoms: _386  and  _388
REMARK  167  A    between atoms: _388  and  _389
REMARK  168  A    between atoms: _388  and  _391
REMARK  169  A    between atoms: _391  and  _392
REMARK  170  A    between atoms: _394  and  _396
REMARK  171  A    between atoms: _396  and  _397
REMARK  172  A    between atoms: _396  and  _399
REMARK  173  A    between atoms: _399  and  _400
REMARK  174  A    between atoms: _410  and  _412
REMARK  175  A    between atoms: _412  and  _413
REMARK  176  A    between atoms: _415  and  _417
REMARK  177  A    between atoms: _417  and  _418
REMARK  178  A    between atoms: _417  and  _420
REMARK  179  A    between atoms: _420  and  _421
REMARK  180  A    between atoms: _421  and  _422
REMARK  181  A    between atoms: _425  and  _427
REMARK  182  A    between atoms: _427  and  _428
REMARK  183  A    between atoms: _430  and  _432
REMARK  184  A    between atoms: _432  and  _433
REMARK  185  A    between atoms: _432  and  _435
REMARK  186  A    between atoms: _435  and  _436
REMARK  187  A    between atoms: _437  and  _439
REMARK  188  A    between atoms: _439  and  _440
REMARK  189  A    between atoms: _443  and  _445
REMARK  190  A    between atoms: _445  and  _446
REMARK  191  A    between atoms: _445  and  _448
REMARK  192  A    between atoms: _448  and  _449
REMARK  193  A    between atoms: _449  and  _450
REMARK  194  A    between atoms: _450  and  _451
REMARK  195  A    between atoms: _460  and  _462
REMARK  196  A    between atoms: _462  and  _463
REMARK  197  A    between atoms: _462  and  _465
REMARK  198  A    between atoms: _465  and  _466
REMARK  199  A    between atoms: _466  and  _467
REMARK  200  A    between atoms: _467  and  _468
REMARK  201  A    between atoms: _468  and  _469
REMARK  202  A    between atoms: _473  and  _475
REMARK  203  A    between atoms: _475  and  _476
REMARK  204  A    between atoms: _475  and  _478
REMARK  205  A    between atoms: _478  and  _479
REMARK  206  A    between atoms: _484  and  _485
REMARK  207  A    between atoms: _487  and  _489
REMARK  208  A    between atoms: _489  and  _490
REMARK  209  A    between atoms: _492  and  _494
REMARK  210  A    between atoms: _494  and  _495
REMARK  211  A    between atoms: _494  and  _497
REMARK  212  A    between atoms: _497  and  _498
REMARK  213  A    between atoms: _501  and  _503
REMARK  214  A    between atoms: _503  and  _504
REMARK  215  A    between atoms: _503  and  _506
REMARK  216  A    between atoms: _506  and  _507
REMARK  217  A    between atoms: _512  and  _513
REMARK  218  A    between atoms: _515  and  _517
REMARK  219  A    between atoms: _517  and  _518
REMARK  220  A    between atoms: _517  and  _520
REMARK  221  A    between atoms: _520  and  _521
REMARK                            x       y       z     vdW  Elec       q    Type
REMARK                         _______ _______ _______ _____ _____    ______ ____
ROOT
ATOM      1  O   HOH     1       1.091  54.138   8.738  0.00  0.00    +0.000 OA
ENDROOT
TORSDOF 0
REMARK  Name = ../refined-set-2016/2vwo/2vwo_pocket.pdb
REMARK  221 active torsions:
REMARK  status: ('A' for Active; 'I' for Inactive)
REMARK    1  A    between atoms: _1  and  _5
REMARK    2  A    between atoms: _5  and  _6
REMARK    3  A    between atoms: _5  and  _8
REMARK    4  A    between atoms: _8  and  _9
REMARK    5  A    between atoms: _12  and  _14
REMARK    6  A    between atoms: _14  and  _15
REMARK    7  A    between atoms: _14  and  _17
REMARK    8  A    between atoms: _20  and  _22
REMARK    9  A    between atoms: _22  and  _23
REMARK   10  A    between atoms: _22  and  _25
REMARK   11  A    between atoms: _25  and  _26
REMARK   12  A    between atoms: _31  and  _33
REMARK   13  A    between atoms: _33  and  _34
REMARK   14  A    between atoms: _33  and  _36
REMARK   15  A    between atoms: _36  and  _37
REMARK   16  A    between atoms: _37  and  _38
REMARK   17  A    between atoms: _43  and  _45
REMARK   18  A    between atoms: _45  and  _46
REMARK   19  A    between atoms: _45  and  _48
REMARK   20  A    between atoms: _48  and  _49
REMARK   21  A    between atoms: _52  and  _54
REMARK   22  A    between atoms: _54  and  _55
REMARK   23  A    between atoms: _54  and  _57
REMARK   24  A    between atoms: _57  and  _58
REMARK   25  A    between atoms: _58  and  _59
REMARK   26  A    between atoms: _59  and  _60
REMARK   27  A    between atoms: _60  and  _61
REMARK   28  A    between atoms: _65  and  _67
REMARK   29  A    between atoms: _67  and  _68
REMARK   30  A    between atoms: _67  and  _70
REMARK   31  A    between atoms: _70  and  _71
REMARK   32  A    between atoms: _71  and  _72
REMARK   33  A    between atoms: _75  and  _77
REMARK   34  A    between atoms: _77  and  _78
REMARK   35  A    between atoms: _77  and  _80
REMARK   36  A    between atoms: _80  and  _81
REMARK   37  A    between atoms: _84  and  _86
REMARK   38  A    between atoms: _86  and  _87
REMARK   39  A    between atoms: _86  and  _89
REMARK   40  A    between atoms: _89  and  _90
REMARK   41  A    between atoms: _95  and  _96
REMARK   42  A    between atoms: _98  and  _100
REMARK   43  A    between atoms: _100  and  _101
REMARK   44  A    between atoms: _100  and  _103
REMARK   45  A    between atoms: _103  and  _104
REMARK   46  A    between atoms: _107  and  _109
REMARK   47  A    between atoms: _109  and  _110
REMARK   48  A    between atoms: _109  and  _112
REMARK   49  A    between atoms: _112  and  _113
REMARK   50  A    between atoms: _116  and  _118
REMARK   51  A    between atoms: _118  and  _119
REMARK   52  A    between atoms: _118  and  _121
REMARK   53  A    between atoms: _124  and  _126
REMARK   54  A    between atoms: _126  and  _127
REMARK   55  A    between atoms: _126  and  _129
REMARK   56  A    between atoms: _129  and  _130
REMARK   57  A    between atoms: _130  and  _131
REMARK   58  A    between atoms: _131  and  _132
REMARK   59  A    between atoms: _141  and  _143
REMARK   60  A    between atoms: _143  and  _144
REMARK   61  A    between atoms: _143  and  _146
REMARK   62  A    between atoms: _146  and  _147
REMARK   63  A    between atoms: _152  and  _154
REMARK   64  A    between atoms: _154  and  _155
REMARK   65  A    between atoms: _154  and  _157
REMARK   66  A    between atoms: _157  and  _158
REMARK   67  A    between atoms: _158  and  _159
REMARK   68  A    between atoms: _162  and  _164
REMARK   69  A    between atoms: _164  and  _165
REMARK   70  A    between atoms: _164  and  _167
REMARK   71  A    between atoms: _167  and  _168
REMARK   72  A    between atoms: _168  and  _169
REMARK   73  A    between atoms: _169  and  _170
REMARK   74  A    between atoms: _170  and  _171
REMARK   75  A    between atoms: _175  and  _177
REMARK   76  A    between atoms: _177  and  _178
REMARK   77  A    between atoms: _180  and  _182
REMARK   78  A    between atoms: _182  and  _183
REMARK   79  A    between atoms: _182  and  _185
REMARK   80  A    between atoms: _188  and  _190
REMARK   81  A    between atoms: _190  and  _191
REMARK   82  A    between atoms: _190  and  _193
REMARK   83  A    between atoms: _193  and  _194
REMARK   84  A    between atoms: _196  and  _198
REMARK   85  A    between atoms: _198  and  _199
REMARK   86  A    between atoms: _198  and  _201
REMARK   87  A    between atoms: _201  and  _202
REMARK   88  A    between atoms: _204  and  _206
REMARK   89  A    between atoms: _206  and  _207
REMARK   90  A    between atoms: _206  and  _209
REMARK   91  A    between atoms: _209  and  _210
REMARK   92  A    between atoms: _216  and  _218
REMARK   93  A    between atoms: _218  and  _219
REMARK   94  A    between atoms: _218  and  _221
REMARK   95  A    between atoms: _221  and  _222
REMARK   96  A    between atoms: _225  and  _227
REMARK   97  A    between atoms: _227  and  _228
REMARK   98  A    between atoms: _227  and  _230
REMARK   99  A    between atoms: _230  and  _231
REMARK  100  A    between atoms: _234  and  _236
REMARK  101  A    between atoms: _236  and  _237
REMARK  102  A    between atoms: _236  and  _239
REMARK  103  A    between atoms: _239  and  _240
REMARK  104  A    between atoms: _243  and  _245
REMARK  105  A    between atoms: _245  and  _246
REMARK  106  A    between atoms: _245  and  _248
REMARK  107  A    between atoms: _248  and  _249
REMARK  108  A    between atoms: _249  and  _250
REMARK  109  A    between atoms: _252  and  _254
REMARK  110  A    between atoms: _254  and  _255
REMARK  111  A    between atoms: _254  and  _257
REMARK  112  A    between atoms: _257  and  _258
REMARK  113  A    between atoms: _264  and  _266
REMARK  114  A    between atoms: _266  and  _267
REMARK  115  A    between atoms: _266  and  _269
REMARK  116  A    between atoms: _271  and  _273
REMARK  117  A    between atoms: _273  and  _274
REMARK  118  A    between atoms: _277  and  _279
REMARK  119  A    between atoms: _279  and  _280
REMARK  120  A    between atoms: _282  and  _284
REMARK  121  A    between atoms: _284  and  _285
REMARK  122  A    between atoms: _284  and  _287
REMARK  123  A    between atoms: _287  and  _288
REMARK  124  A    between atoms: _288  and  _289
REMARK  125  A    between atoms: _292  and  _294
REMARK  126  A    between atoms: _294  and  _295
REMARK  127  A    between atoms: _294  and  _297
REMARK  128  A    between atoms: _297  and  _298
REMARK  129  A    between atoms: _301  and  _303
REMARK  130  A    between atoms: _303  and  _304
REMARK  131  A    between atoms: _307  and  _309
REMARK  132  A    between atoms: _309  and  _310
REMARK  133  A    between atoms: _309  and  _312
REMARK  134  A    between atoms: _312  and  _313
REMARK  135  A    between atoms: _313  and  _436
REMARK  136  A    between atoms: _314  and  _316
REMARK  137  A    between atoms: _316  and  _317
REMARK  138  A    between atoms: _316  and  _319
REMARK  139  A    between atoms: _319  and  _320
REMARK  140  A    between atoms: _320  and  _321
REMARK  141  A    between atoms: _326  and  _328
REMARK  142  A    between atoms: _328  and  _329
REMARK  143  A    between atoms: _331  and  _333
REMARK  144  A    between atoms: _333  and  _334
REMARK  145  A    between atoms: _333  and  _336
REMARK  146  A    between atoms: _336  and  _337
REMARK  147  A    between atoms: _340  and  _342
REMARK  148  A    between atoms: _342  and  _343
REMARK  149  A    between atoms: _342  and  _345
REMARK  150  A    between atoms: _345  and  _346
REMARK  151  A    between atoms: _348  and  _350
REMARK  152  A    between atoms: _350  and  _351
REMARK  153  A    between atoms: _353  and  _355
REMARK  154  A    between atoms: _355  and  _356
REMARK  155  A    between atoms: _358  and  _360
REMARK  156  A    between atoms: _360  and  _361
REMARK  157  A    between atoms: _360  and  _363
REMARK  158  A    between atoms: _363  and  _364
REMARK  159  A    between atoms: _369  and  _371
REMARK  160  A    between atoms: _371  and  _372
REMARK  161  A    between atoms: _371  and  _374
REMARK  162  A    between atoms: _374  and  _375
REMARK  163  A    between atoms: _378  and  _380
REMARK  164  A    between atoms: _380  and  _381
REMARK  165  A    between atoms: _380  and  _383
REMARK  166  A    between atoms: _386  and  _388
REMARK  167  A    between atoms: _388  and  _389
REMARK  168  A    between atoms: _388  and  _391
REMARK  169  A    between atoms: _391  and  _392
REMARK  170  A    between atoms: _394  and  _396
REMARK  171  A    between atoms: _396  and  _397
REMARK  172  A    between atoms: _396  and  _399
REMARK  173  A    between atoms: _399  and  _400
REMARK  174  A    between atoms: _410  and  _412
REMARK  175  A    between atoms: _412  and  _413
REMARK  176  A    between atoms: _415  and  _417
REMARK  177  A    between atoms: _417  and  _418
REMARK  178  A    between atoms: _417  and  _420
REMARK  179  A    between atoms: _420  and  _421
REMARK  180  A    between atoms: _421  and  _422
REMARK  181  A    between atoms: _425  and  _427
REMARK  182  A    between atoms: _427  and  _428
REMARK  183  A    between atoms: _430  and  _432
REMARK  184  A    between atoms: _432  and  _433
REMARK  185  A    between atoms: _432  and  _435
REMARK  186  A    between atoms: _435  and  _436
REMARK  187  A    between atoms: _437  and  _439
REMARK  188  A    between atoms: _439  and  _440
REMARK  189  A    between atoms: _443  and  _445
REMARK  190  A    between atoms: _445  and  _446
REMARK  191  A    between atoms: _445  and  _448
REMARK  192  A    between atoms: _448  and  _449
REMARK  193  A    between atoms: _449  and  _450
REMARK  194  A    between atoms: _450  and  _451
REMARK  195  A    between atoms: _460  and  _462
REMARK  196  A    between atoms: _462  and  _463
REMARK  197  A    between atoms: _462  and  _465
REMARK  198  A    between atoms: _465  and  _466
REMARK  199  A    between atoms: _466  and  _467
REMARK  200  A    between atoms: _467  and  _468
REMARK  201  A    between atoms: _468  and  _469
REMARK  202  A    between atoms: _473  and  _475
REMARK  203  A    between atoms: _475  and  _476
REMARK  204  A    between atoms: _475  and  _478
REMARK  205  A    between atoms: _478  and  _479
REMARK  206  A    between atoms: _484  and  _485
REMARK  207  A    between atoms: _487  and  _489
REMARK  208  A    between atoms: _489  and  _490
REMARK  209  A    between atoms: _492  and  _494
REMARK  210  A    between atoms: _494  and  _495
REMARK  211  A    between atoms: _494  and  _497
REMARK  212  A    between atoms: _497  and  _498
REMARK  213  A    between atoms: _501  and  _503
REMARK  214  A    between atoms: _503  and  _504
REMARK  215  A    between atoms: _503  and  _506
REMARK  216  A    between atoms: _506  and  _507
REMARK  217  A    between atoms: _512  and  _513
REMARK  218  A    between atoms: _515  and  _517
REMARK  219  A    between atoms: _517  and  _518
REMARK  220  A    between atoms: _517  and  _520
REMARK  221  A    between atoms: _520  and  _521
REMARK                            x       y       z     vdW  Elec       q    Type
REMARK                         _______ _______ _______ _____ _____    ______ ____
ROOT
ATOM      1  O   HOH     1       3.565  53.492   5.876  0.00  0.00    +0.000 OA
ENDROOT
TORSDOF 0
REMARK  Name = ../refined-set-2016/2vwo/2vwo_pocket.pdb
REMARK  221 active torsions:
REMARK  status: ('A' for Active; 'I' for Inactive)
REMARK    1  A    between atoms: _1  and  _5
REMARK    2  A    between atoms: _5  and  _6
REMARK    3  A    between atoms: _5  and  _8
REMARK    4  A    between atoms: _8  and  _9
REMARK    5  A    between atoms: _12  and  _14
REMARK    6  A    between atoms: _14  and  _15
REMARK    7  A    between atoms: _14  and  _17
REMARK    8  A    between atoms: _20  and  _22
REMARK    9  A    between atoms: _22  and  _23
REMARK   10  A    between atoms: _22  and  _25
REMARK   11  A    between atoms: _25  and  _26
REMARK   12  A    between atoms: _31  and  _33
REMARK   13  A    between atoms: _33  and  _34
REMARK   14  A    between atoms: _33  and  _36
REMARK   15  A    between atoms: _36  and  _37
REMARK   16  A    between atoms: _37  and  _38
REMARK   17  A    between atoms: _43  and  _45
REMARK   18  A    between atoms: _45  and  _46
REMARK   19  A    between atoms: _45  and  _48
REMARK   20  A    between atoms: _48  and  _49
REMARK   21  A    between atoms: _52  and  _54
REMARK   22  A    between atoms: _54  and  _55
REMARK   23  A    between atoms: _54  and  _57
REMARK   24  A    between atoms: _57  and  _58
REMARK   25  A    between atoms: _58  and  _59
REMARK   26  A    between atoms: _59  and  _60
REMARK   27  A    between atoms: _60  and  _61
REMARK   28  A    between atoms: _65  and  _67
REMARK   29  A    between atoms: _67  and  _68
REMARK   30  A    between atoms: _67  and  _70
REMARK   31  A    between atoms: _70  and  _71
REMARK   32  A    between atoms: _71  and  _72
REMARK   33  A    between atoms: _75  and  _77
REMARK   34  A    between atoms: _77  and  _78
REMARK   35  A    between atoms: _77  and  _80
REMARK   36  A    between atoms: _80  and  _81
REMARK   37  A    between atoms: _84  and  _86
REMARK   38  A    between atoms: _86  and  _87
REMARK   39  A    between atoms: _86  and  _89
REMARK   40  A    between atoms: _89  and  _90
REMARK   41  A    between atoms: _95  and  _96
REMARK   42  A    between atoms: _98  and  _100
REMARK   43  A    between atoms: _100  and  _101
REMARK   44  A    between atoms: _100  and  _103
REMARK   45  A    between atoms: _103  and  _104
REMARK   46  A    between atoms: _107  and  _109
REMARK   47  A    between atoms: _109  and  _110
REMARK   48  A    between atoms: _109  and  _112
REMARK   49  A    between atoms: _112  and  _113
REMARK   50  A    between atoms: _116  and  _118
REMARK   51  A    between atoms: _118  and  _119
REMARK   52  A    between atoms: _118  and  _121
REMARK   53  A    between atoms: _124  and  _126
REMARK   54  A    between atoms: _126  and  _127
REMARK   55  A    between atoms: _126  and  _129
REMARK   56  A    between atoms: _129  and  _130
REMARK   57  A    between atoms: _130  and  _131
REMARK   58  A    between atoms: _131  and  _132
REMARK   59  A    between atoms: _141  and  _143
REMARK   60  A    between atoms: _143  and  _144
REMARK   61  A    between atoms: _143  and  _146
REMARK   62  A    between atoms: _146  and  _147
REMARK   63  A    between atoms: _152  and  _154
REMARK   64  A    between atoms: _154  and  _155
REMARK   65  A    between atoms: _154  and  _157
REMARK   66  A    between atoms: _157  and  _158
REMARK   67  A    between atoms: _158  and  _159
REMARK   68  A    between atoms: _162  and  _164
REMARK   69  A    between atoms: _164  and  _165
REMARK   70  A    between atoms: _164  and  _167
REMARK   71  A    between atoms: _167  and  _168
REMARK   72  A    between atoms: _168  and  _169
REMARK   73  A    between atoms: _169  and  _170
REMARK   74  A    between atoms: _170  and  _171
REMARK   75  A    between atoms: _175  and  _177
REMARK   76  A    between atoms: _177  and  _178
REMARK   77  A    between atoms: _180  and  _182
REMARK   78  A    between atoms: _182  and  _183
REMARK   79  A    between atoms: _182  and  _185
REMARK   80  A    between atoms: _188  and  _190
REMARK   81  A    between atoms: _190  and  _191
REMARK   82  A    between atoms: _190  and  _193
REMARK   83  A    between atoms: _193  and  _194
REMARK   84  A    between atoms: _196  and  _198
REMARK   85  A    between atoms: _198  and  _199
REMARK   86  A    between atoms: _198  and  _201
REMARK   87  A    between atoms: _201  and  _202
REMARK   88  A    between atoms: _204  and  _206
REMARK   89  A    between atoms: _206  and  _207
REMARK   90  A    between atoms: _206  and  _209
REMARK   91  A    between atoms: _209  and  _210
REMARK   92  A    between atoms: _216  and  _218
REMARK   93  A    between atoms: _218  and  _219
REMARK   94  A    between atoms: _218  and  _221
REMARK   95  A    between atoms: _221  and  _222
REMARK   96  A    between atoms: _225  and  _227
REMARK   97  A    between atoms: _227  and  _228
REMARK   98  A    between atoms: _227  and  _230
REMARK   99  A    between atoms: _230  and  _231
REMARK  100  A    between atoms: _234  and  _236
REMARK  101  A    between atoms: _236  and  _237
REMARK  102  A    between atoms: _236  and  _239
REMARK  103  A    between atoms: _239  and  _240
REMARK  104  A    between atoms: _243  and  _245
REMARK  105  A    between atoms: _245  and  _246
REMARK  106  A    between atoms: _245  and  _248
REMARK  107  A    between atoms: _248  and  _249
REMARK  108  A    between atoms: _249  and  _250
REMARK  109  A    between atoms: _252  and  _254
REMARK  110  A    between atoms: _254  and  _255
REMARK  111  A    between atoms: _254  and  _257
REMARK  112  A    between atoms: _257  and  _258
REMARK  113  A    between atoms: _264  and  _266
REMARK  114  A    between atoms: _266  and  _267
REMARK  115  A    between atoms: _266  and  _269
REMARK  116  A    between atoms: _271  and  _273
REMARK  117  A    between atoms: _273  and  _274
REMARK  118  A    between atoms: _277  and  _279
REMARK  119  A    between atoms: _279  and  _280
REMARK  120  A    between atoms: _282  and  _284
REMARK  121  A    between atoms: _284  and  _285
REMARK  122  A    between atoms: _284  and  _287
REMARK  123  A    between atoms: _287  and  _288
REMARK  124  A    between atoms: _288  and  _289
REMARK  125  A    between atoms: _292  and  _294
REMARK  126  A    between atoms: _294  and  _295
REMARK  127  A    between atoms: _294  and  _297
REMARK  128  A    between atoms: _297  and  _298
REMARK  129  A    between atoms: _301  and  _303
REMARK  130  A    between atoms: _303  and  _304
REMARK  131  A    between atoms: _307  and  _309
REMARK  132  A    between atoms: _309  and  _310
REMARK  133  A    between atoms: _309  and  _312
REMARK  134  A    between atoms: _312  and  _313
REMARK  135  A    between atoms: _313  and  _436
REMARK  136  A    between atoms: _314  and  _316
REMARK  137  A    between atoms: _316  and  _317
REMARK  138  A    between atoms: _316  and  _319
REMARK  139  A    between atoms: _319  and  _320
REMARK  140  A    between atoms: _320  and  _321
REMARK  141  A    between atoms: _326  and  _328
REMARK  142  A    between atoms: _328  and  _329
REMARK  143  A    between atoms: _331  and  _333
REMARK  144  A    between atoms: _333  and  _334
REMARK  145  A    between atoms: _333  and  _336
REMARK  146  A    between atoms: _336  and  _337
REMARK  147  A    between atoms: _340  and  _342
REMARK  148  A    between atoms: _342  and  _343
REMARK  149  A    between atoms: _342  and  _345
REMARK  150  A    between atoms: _345  and  _346
REMARK  151  A    between atoms: _348  and  _350
REMARK  152  A    between atoms: _350  and  _351
REMARK  153  A    between atoms: _353  and  _355
REMARK  154  A    between atoms: _355  and  _356
REMARK  155  A    between atoms: _358  and  _360
REMARK  156  A    between atoms: _360  and  _361
REMARK  157  A    between atoms: _360  and  _363
REMARK  158  A    between atoms: _363  and  _364
REMARK  159  A    between atoms: _369  and  _371
REMARK  160  A    between atoms: _371  and  _372
REMARK  161  A    between atoms: _371  and  _374
REMARK  162  A    between atoms: _374  and  _375
REMARK  163  A    between atoms: _378  and  _380
REMARK  164  A    between atoms: _380  and  _381
REMARK  165  A    between atoms: _380  and  _383
REMARK  166  A    between atoms: _386  and  _388
REMARK  167  A    between atoms: _388  and  _389
REMARK  168  A    between atoms: _388  and  _391
REMARK  169  A    between atoms: _391  and  _392
REMARK  170  A    between atoms: _394  and  _396
REMARK  171  A    between atoms: _396  and  _397
REMARK  172  A    between atoms: _396  and  _399
REMARK  173  A    between atoms: _399  and  _400
REMARK  174  A    between atoms: _410  and  _412
REMARK  175  A    between atoms: _412  and  _413
REMARK  176  A    between atoms: _415  and  _417
REMARK  177  A    between atoms: _417  and  _418
REMARK  178  A    between atoms: _417  and  _420
REMARK  179  A    between atoms: _420  and  _421
REMARK  180  A    between atoms: _421  and  _422
REMARK  181  A    between atoms: _425  and  _427
REMARK  182  A    between atoms: _427  and  _428
REMARK  183  A    between atoms: _430  and  _432
REMARK  184  A    between atoms: _432  and  _433
REMARK  185  A    between atoms: _432  and  _435
REMARK  186  A    between atoms: _435  and  _436
REMARK  187  A    between atoms: _437  and  _439
REMARK  188  A    between atoms: _439  and  _440
REMARK  189  A    between atoms: _443  and  _445
REMARK  190  A    between atoms: _445  and  _446
REMARK  191  A    between atoms: _445  and  _448
REMARK  192  A    between atoms: _448  and  _449
REMARK  193  A    between atoms: _449  and  _450
REMARK  194  A    between atoms: _450  and  _451
REMARK  195  A    between atoms: _460  and  _462
REMARK  196  A    between atoms: _462  and  _463
REMARK  197  A    between atoms: _462  and  _465
REMARK  198  A    between atoms: _465  and  _466
REMARK  199  A    between atoms: _466  and  _467
REMARK  200  A    between atoms: _467  and  _468
REMARK  201  A    between atoms: _468  and  _469
REMARK  202  A    between atoms: _473  and  _475
REMARK  203  A    between atoms: _475  and  _476
REMARK  204  A    between atoms: _475  and  _478
REMARK  205  A    between atoms: _478  and  _479
REMARK  206  A    between atoms: _484  and  _485
REMARK  207  A    between atoms: _487  and  _489
REMARK  208  A    between atoms: _489  and  _490
REMARK  209  A    between atoms: _492  and  _494
REMARK  210  A    between atoms: _494  and  _495
REMARK  211  A    between atoms: _494  and  _497
REMARK  212  A    between atoms: _497  and  _498
REMARK  213  A    between atoms: _501  and  _503
REMARK  214  A    between atoms: _503  and  _504
REMARK  215  A    between atoms: _503  and  _506
REMARK  216  A    between atoms: _506  and  _507
REMARK  217  A    between atoms: _512  and  _513
REMARK  218  A    between atoms: _515  and  _517
REMARK  219  A    between atoms: _517  and  _518
REMARK  220  A    between atoms: _517  and  _520
REMARK  221  A    between atoms: _520  and  _521
REMARK                            x       y       z     vdW  Elec       q    Type
REMARK                         _______ _______ _______ _____ _____    ______ ____
ROOT
ATOM      1  O   HOH     1      16.287  65.282  14.207  0.00  0.00    +0.000 OA
ENDROOT
TORSDOF 0
REMARK  Name = ../refined-set-2016/2vwo/2vwo_pocket.pdb
REMARK  221 active torsions:
REMARK  status: ('A' for Active; 'I' for Inactive)
REMARK    1  A    between atoms: _1  and  _5
REMARK    2  A    between atoms: _5  and  _6
REMARK    3  A    between atoms: _5  and  _8
REMARK    4  A    between atoms: _8  and  _9
REMARK    5  A    between atoms: _12  and  _14
REMARK    6  A    between atoms: _14  and  _15
REMARK    7  A    between atoms: _14  and  _17
REMARK    8  A    between atoms: _20  and  _22
REMARK    9  A    between atoms: _22  and  _23
REMARK   10  A    between atoms: _22  and  _25
REMARK   11  A    between atoms: _25  and  _26
REMARK   12  A    between atoms: _31  and  _33
REMARK   13  A    between atoms: _33  and  _34
REMARK   14  A    between atoms: _33  and  _36
REMARK   15  A    between atoms: _36  and  _37
REMARK   16  A    between atoms: _37  and  _38
REMARK   17  A    between atoms: _43  and  _45
REMARK   18  A    between atoms: _45  and  _46
REMARK   19  A    between atoms: _45  and  _48
REMARK   20  A    between atoms: _48  and  _49
REMARK   21  A    between atoms: _52  and  _54
REMARK   22  A    between atoms: _54  and  _55
REMARK   23  A    between atoms: _54  and  _57
REMARK   24  A    between atoms: _57  and  _58
REMARK   25  A    between atoms: _58  and  _59
REMARK   26  A    between atoms: _59  and  _60
REMARK   27  A    between atoms: _60  and  _61
REMARK   28  A    between atoms: _65  and  _67
REMARK   29  A    between atoms: _67  and  _68
REMARK   30  A    between atoms: _67  and  _70
REMARK   31  A    between atoms: _70  and  _71
REMARK   32  A    between atoms: _71  and  _72
REMARK   33  A    between atoms: _75  and  _77
REMARK   34  A    between atoms: _77  and  _78
REMARK   35  A    between atoms: _77  and  _80
REMARK   36  A    between atoms: _80  and  _81
REMARK   37  A    between atoms: _84  and  _86
REMARK   38  A    between atoms: _86  and  _87
REMARK   39  A    between atoms: _86  and  _89
REMARK   40  A    between atoms: _89  and  _90
REMARK   41  A    between atoms: _95  and  _96
REMARK   42  A    between atoms: _98  and  _100
REMARK   43  A    between atoms: _100  and  _101
REMARK   44  A    between atoms: _100  and  _103
REMARK   45  A    between atoms: _103  and  _104
REMARK   46  A    between atoms: _107  and  _109
REMARK   47  A    between atoms: _109  and  _110
REMARK   48  A    between atoms: _109  and  _112
REMARK   49  A    between atoms: _112  and  _113
REMARK   50  A    between atoms: _116  and  _118
REMARK   51  A    between atoms: _118  and  _119
REMARK   52  A    between atoms: _118  and  _121
REMARK   53  A    between atoms: _124  and  _126
REMARK   54  A    between atoms: _126  and  _127
REMARK   55  A    between atoms: _126  and  _129
REMARK   56  A    between atoms: _129  and  _130
REMARK   57  A    between atoms: _130  and  _131
REMARK   58  A    between atoms: _131  and  _132
REMARK   59  A    between atoms: _141  and  _143
REMARK   60  A    between atoms: _143  and  _144
REMARK   61  A    between atoms: _143  and  _146
REMARK   62  A    between atoms: _146  and  _147
REMARK   63  A    between atoms: _152  and  _154
REMARK   64  A    between atoms: _154  and  _155
REMARK   65  A    between atoms: _154  and  _157
REMARK   66  A    between atoms: _157  and  _158
REMARK   67  A    between atoms: _158  and  _159
REMARK   68  A    between atoms: _162  and  _164
REMARK   69  A    between atoms: _164  and  _165
REMARK   70  A    between atoms: _164  and  _167
REMARK   71  A    between atoms: _167  and  _168
REMARK   72  A    between atoms: _168  and  _169
REMARK   73  A    between atoms: _169  and  _170
REMARK   74  A    between atoms: _170  and  _171
REMARK   75  A    between atoms: _175  and  _177
REMARK   76  A    between atoms: _177  and  _178
REMARK   77  A    between atoms: _180  and  _182
REMARK   78  A    between atoms: _182  and  _183
REMARK   79  A    between atoms: _182  and  _185
REMARK   80  A    between atoms: _188  and  _190
REMARK   81  A    between atoms: _190  and  _191
REMARK   82  A    between atoms: _190  and  _193
REMARK   83  A    between atoms: _193  and  _194
REMARK   84  A    between atoms: _196  and  _198
REMARK   85  A    between atoms: _198  and  _199
REMARK   86  A    between atoms: _198  and  _201
REMARK   87  A    between atoms: _201  and  _202
REMARK   88  A    between atoms: _204  and  _206
REMARK   89  A    between atoms: _206  and  _207
REMARK   90  A    between atoms: _206  and  _209
REMARK   91  A    between atoms: _209  and  _210
REMARK   92  A    between atoms: _216  and  _218
REMARK   93  A    between atoms: _218  and  _219
REMARK   94  A    between atoms: _218  and  _221
REMARK   95  A    between atoms: _221  and  _222
REMARK   96  A    between atoms: _225  and  _227
REMARK   97  A    between atoms: _227  and  _228
REMARK   98  A    between atoms: _227  and  _230
REMARK   99  A    between atoms: _230  and  _231
REMARK  100  A    between atoms: _234  and  _236
REMARK  101  A    between atoms: _236  and  _237
REMARK  102  A    between atoms: _236  and  _239
REMARK  103  A    between atoms: _239  and  _240
REMARK  104  A    between atoms: _243  and  _245
REMARK  105  A    between atoms: _245  and  _246
REMARK  106  A    between atoms: _245  and  _248
REMARK  107  A    between atoms: _248  and  _249
REMARK  108  A    between atoms: _249  and  _250
REMARK  109  A    between atoms: _252  and  _254
REMARK  110  A    between atoms: _254  and  _255
REMARK  111  A    between atoms: _254  and  _257
REMARK  112  A    between atoms: _257  and  _258
REMARK  113  A    between atoms: _264  and  _266
REMARK  114  A    between atoms: _266  and  _267
REMARK  115  A    between atoms: _266  and  _269
REMARK  116  A    between atoms: _271  and  _273
REMARK  117  A    between atoms: _273  and  _274
REMARK  118  A    between atoms: _277  and  _279
REMARK  119  A    between atoms: _279  and  _280
REMARK  120  A    between atoms: _282  and  _284
REMARK  121  A    between atoms: _284  and  _285
REMARK  122  A    between atoms: _284  and  _287
REMARK  123  A    between atoms: _287  and  _288
REMARK  124  A    between atoms: _288  and  _289
REMARK  125  A    between atoms: _292  and  _294
REMARK  126  A    between atoms: _294  and  _295
REMARK  127  A    between atoms: _294  and  _297
REMARK  128  A    between atoms: _297  and  _298
REMARK  129  A    between atoms: _301  and  _303
REMARK  130  A    between atoms: _303  and  _304
REMARK  131  A    between atoms: _307  and  _309
REMARK  132  A    between atoms: _309  and  _310
REMARK  133  A    between atoms: _309  and  _312
REMARK  134  A    between atoms: _312  and  _313
REMARK  135  A    between atoms: _313  and  _436
REMARK  136  A    between atoms: _314  and  _316
REMARK  137  A    between atoms: _316  and  _317
REMARK  138  A    between atoms: _316  and  _319
REMARK  139  A    between atoms: _319  and  _320
REMARK  140  A    between atoms: _320  and  _321
REMARK  141  A    between atoms: _326  and  _328
REMARK  142  A    between atoms: _328  and  _329
REMARK  143  A    between atoms: _331  and  _333
REMARK  144  A    between atoms: _333  and  _334
REMARK  145  A    between atoms: _333  and  _336
REMARK  146  A    between atoms: _336  and  _337
REMARK  147  A    between atoms: _340  and  _342
REMARK  148  A    between atoms: _342  and  _343
REMARK  149  A    between atoms: _342  and  _345
REMARK  150  A    between atoms: _345  and  _346
REMARK  151  A    between atoms: _348  and  _350
REMARK  152  A    between atoms: _350  and  _351
REMARK  153  A    between atoms: _353  and  _355
REMARK  154  A    between atoms: _355  and  _356
REMARK  155  A    between atoms: _358  and  _360
REMARK  156  A    between atoms: _360  and  _361
REMARK  157  A    between atoms: _360  and  _363
REMARK  158  A    between atoms: _363  and  _364
REMARK  159  A    between atoms: _369  and  _371
REMARK  160  A    between atoms: _371  and  _372
REMARK  161  A    between atoms: _371  and  _374
REMARK  162  A    between atoms: _374  and  _375
REMARK  163  A    between atoms: _378  and  _380
REMARK  164  A    between atoms: _380  and  _381
REMARK  165  A    between atoms: _380  and  _383
REMARK  166  A    between atoms: _386  and  _388
REMARK  167  A    between atoms: _388  and  _389
REMARK  168  A    between atoms: _388  and  _391
REMARK  169  A    between atoms: _391  and  _392
REMARK  170  A    between atoms: _394  and  _396
REMARK  171  A    between atoms: _396  and  _397
REMARK  172  A    between atoms: _396  and  _399
REMARK  173  A    between atoms: _399  and  _400
REMARK  174  A    between atoms: _410  and  _412
REMARK  175  A    between atoms: _412  and  _413
REMARK  176  A    between atoms: _415  and  _417
REMARK  177  A    between atoms: _417  and  _418
REMARK  178  A    between atoms: _417  and  _420
REMARK  179  A    between atoms: _420  and  _421
REMARK  180  A    between atoms: _421  and  _422
REMARK  181  A    between atoms: _425  and  _427
REMARK  182  A    between atoms: _427  and  _428
REMARK  183  A    between atoms: _430  and  _432
REMARK  184  A    between atoms: _432  and  _433
REMARK  185  A    between atoms: _432  and  _435
REMARK  186  A    between atoms: _435  and  _436
REMARK  187  A    between atoms: _437  and  _439
REMARK  188  A    between atoms: _439  and  _440
REMARK  189  A    between atoms: _443  and  _445
REMARK  190  A    between atoms: _445  and  _446
REMARK  191  A    between atoms: _445  and  _448
REMARK  192  A    between atoms: _448  and  _449
REMARK  193  A    between atoms: _449  and  _450
REMARK  194  A    between atoms: _450  and  _451
REMARK  195  A    between atoms: _460  and  _462
REMARK  196  A    between atoms: _462  and  _463
REMARK  197  A    between atoms: _462  and  _465
REMARK  198  A    between atoms: _465  and  _466
REMARK  199  A    between atoms: _466  and  _467
REMARK  200  A    between atoms: _467  and  _468
REMARK  201  A    between atoms: _468  and  _469
REMARK  202  A    between atoms: _473  and  _475
REMARK  203  A    between atoms: _475  and  _476
REMARK  204  A    between atoms: _475  and  _478
REMARK  205  A    between atoms: _478  and  _479
REMARK  206  A    between atoms: _484  and  _485
REMARK  207  A    between atoms: _487  and  _489
REMARK  208  A    between atoms: _489  and  _490
REMARK  209  A    between atoms: _492  and  _494
REMARK  210  A    between atoms: _494  and  _495
REMARK  211  A    between atoms: _494  and  _497
REMARK  212  A    between atoms: _497  and  _498
REMARK  213  A    between atoms: _501  and  _503
REMARK  214  A    between atoms: _503  and  _504
REMARK  215  A    between atoms: _503  and  _506
REMARK  216  A    between atoms: _506  and  _507
REMARK  217  A    between atoms: _512  and  _513
REMARK  218  A    between atoms: _515  and  _517
REMARK  219  A    between atoms: _517  and  _518
REMARK  220  A    between atoms: _517  and  _520
REMARK  221  A    between atoms: _520  and  _521
REMARK                            x       y       z     vdW  Elec       q    Type
REMARK                         _______ _______ _______ _____ _____    ______ ____
ROOT
ATOM      1  O   HOH     1      12.246  64.432  10.124  0.00  0.00    +0.000 OA
ENDROOT
TORSDOF 0
REMARK  Name = ../refined-set-2016/2vwo/2vwo_pocket.pdb
REMARK  221 active torsions:
REMARK  status: ('A' for Active; 'I' for Inactive)
REMARK    1  A    between atoms: _1  and  _5
REMARK    2  A    between atoms: _5  and  _6
REMARK    3  A    between atoms: _5  and  _8
REMARK    4  A    between atoms: _8  and  _9
REMARK    5  A    between atoms: _12  and  _14
REMARK    6  A    between atoms: _14  and  _15
REMARK    7  A    between atoms: _14  and  _17
REMARK    8  A    between atoms: _20  and  _22
REMARK    9  A    between atoms: _22  and  _23
REMARK   10  A    between atoms: _22  and  _25
REMARK   11  A    between atoms: _25  and  _26
REMARK   12  A    between atoms: _31  and  _33
REMARK   13  A    between atoms: _33  and  _34
REMARK   14  A    between atoms: _33  and  _36
REMARK   15  A    between atoms: _36  and  _37
REMARK   16  A    between atoms: _37  and  _38
REMARK   17  A    between atoms: _43  and  _45
REMARK   18  A    between atoms: _45  and  _46
REMARK   19  A    between atoms: _45  and  _48
REMARK   20  A    between atoms: _48  and  _49
REMARK   21  A    between atoms: _52  and  _54
REMARK   22  A    between atoms: _54  and  _55
REMARK   23  A    between atoms: _54  and  _57
REMARK   24  A    between atoms: _57  and  _58
REMARK   25  A    between atoms: _58  and  _59
REMARK   26  A    between atoms: _59  and  _60
REMARK   27  A    between atoms: _60  and  _61
REMARK   28  A    between atoms: _65  and  _67
REMARK   29  A    between atoms: _67  and  _68
REMARK   30  A    between atoms: _67  and  _70
REMARK   31  A    between atoms: _70  and  _71
REMARK   32  A    between atoms: _71  and  _72
REMARK   33  A    between atoms: _75  and  _77
REMARK   34  A    between atoms: _77  and  _78
REMARK   35  A    between atoms: _77  and  _80
REMARK   36  A    between atoms: _80  and  _81
REMARK   37  A    between atoms: _84  and  _86
REMARK   38  A    between atoms: _86  and  _87
REMARK   39  A    between atoms: _86  and  _89
REMARK   40  A    between atoms: _89  and  _90
REMARK   41  A    between atoms: _95  and  _96
REMARK   42  A    between atoms: _98  and  _100
REMARK   43  A    between atoms: _100  and  _101
REMARK   44  A    between atoms: _100  and  _103
REMARK   45  A    between atoms: _103  and  _104
REMARK   46  A    between atoms: _107  and  _109
REMARK   47  A    between atoms: _109  and  _110
REMARK   48  A    between atoms: _109  and  _112
REMARK   49  A    between atoms: _112  and  _113
REMARK   50  A    between atoms: _116  and  _118
REMARK   51  A    between atoms: _118  and  _119
REMARK   52  A    between atoms: _118  and  _121
REMARK   53  A    between atoms: _124  and  _126
REMARK   54  A    between atoms: _126  and  _127
REMARK   55  A    between atoms: _126  and  _129
REMARK   56  A    between atoms: _129  and  _130
REMARK   57  A    between atoms: _130  and  _131
REMARK   58  A    between atoms: _131  and  _132
REMARK   59  A    between atoms: _141  and  _143
REMARK   60  A    between atoms: _143  and  _144
REMARK   61  A    between atoms: _143  and  _146
REMARK   62  A    between atoms: _146  and  _147
REMARK   63  A    between atoms: _152  and  _154
REMARK   64  A    between atoms: _154  and  _155
REMARK   65  A    between atoms: _154  and  _157
REMARK   66  A    between atoms: _157  and  _158
REMARK   67  A    between atoms: _158  and  _159
REMARK   68  A    between atoms: _162  and  _164
REMARK   69  A    between atoms: _164  and  _165
REMARK   70  A    between atoms: _164  and  _167
REMARK   71  A    between atoms: _167  and  _168
REMARK   72  A    between atoms: _168  and  _169
REMARK   73  A    between atoms: _169  and  _170
REMARK   74  A    between atoms: _170  and  _171
REMARK   75  A    between atoms: _175  and  _177
REMARK   76  A    between atoms: _177  and  _178
REMARK   77  A    between atoms: _180  and  _182
REMARK   78  A    between atoms: _182  and  _183
REMARK   79  A    between atoms: _182  and  _185
REMARK   80  A    between atoms: _188  and  _190
REMARK   81  A    between atoms: _190  and  _191
REMARK   82  A    between atoms: _190  and  _193
REMARK   83  A    between atoms: _193  and  _194
REMARK   84  A    between atoms: _196  and  _198
REMARK   85  A    between atoms: _198  and  _199
REMARK   86  A    between atoms: _198  and  _201
REMARK   87  A    between atoms: _201  and  _202
REMARK   88  A    between atoms: _204  and  _206
REMARK   89  A    between atoms: _206  and  _207
REMARK   90  A    between atoms: _206  and  _209
REMARK   91  A    between atoms: _209  and  _210
REMARK   92  A    between atoms: _216  and  _218
REMARK   93  A    between atoms: _218  and  _219
REMARK   94  A    between atoms: _218  and  _221
REMARK   95  A    between atoms: _221  and  _222
REMARK   96  A    between atoms: _225  and  _227
REMARK   97  A    between atoms: _227  and  _228
REMARK   98  A    between atoms: _227  and  _230
REMARK   99  A    between atoms: _230  and  _231
REMARK  100  A    between atoms: _234  and  _236
REMARK  101  A    between atoms: _236  and  _237
REMARK  102  A    between atoms: _236  and  _239
REMARK  103  A    between atoms: _239  and  _240
REMARK  104  A    between atoms: _243  and  _245
REMARK  105  A    between atoms: _245  and  _246
REMARK  106  A    between atoms: _245  and  _248
REMARK  107  A    between atoms: _248  and  _249
REMARK  108  A    between atoms: _249  and  _250
REMARK  109  A    between atoms: _252  and  _254
REMARK  110  A    between atoms: _254  and  _255
REMARK  111  A    between atoms: _254  and  _257
REMARK  112  A    between atoms: _257  and  _258
REMARK  113  A    between atoms: _264  and  _266
REMARK  114  A    between atoms: _266  and  _267
REMARK  115  A    between atoms: _266  and  _269
REMARK  116  A    between atoms: _271  and  _273
REMARK  117  A    between atoms: _273  and  _274
REMARK  118  A    between atoms: _277  and  _279
REMARK  119  A    between atoms: _279  and  _280
REMARK  120  A    between atoms: _282  and  _284
REMARK  121  A    between atoms: _284  and  _285
REMARK  122  A    between atoms: _284  and  _287
REMARK  123  A    between atoms: _287  and  _288
REMARK  124  A    between atoms: _288  and  _289
REMARK  125  A    between atoms: _292  and  _294
REMARK  126  A    between atoms: _294  and  _295
REMARK  127  A    between atoms: _294  and  _297
REMARK  128  A    between atoms: _297  and  _298
REMARK  129  A    between atoms: _301  and  _303
REMARK  130  A    between atoms: _303  and  _304
REMARK  131  A    between atoms: _307  and  _309
REMARK  132  A    between atoms: _309  and  _310
REMARK  133  A    between atoms: _309  and  _312
REMARK  134  A    between atoms: _312  and  _313
REMARK  135  A    between atoms: _313  and  _436
REMARK  136  A    between atoms: _314  and  _316
REMARK  137  A    between atoms: _316  and  _317
REMARK  138  A    between atoms: _316  and  _319
REMARK  139  A    between atoms: _319  and  _320
REMARK  140  A    between atoms: _320  and  _321
REMARK  141  A    between atoms: _326  and  _328
REMARK  142  A    between atoms: _328  and  _329
REMARK  143  A    between atoms: _331  and  _333
REMARK  144  A    between atoms: _333  and  _334
REMARK  145  A    between atoms: _333  and  _336
REMARK  146  A    between atoms: _336  and  _337
REMARK  147  A    between atoms: _340  and  _342
REMARK  148  A    between atoms: _342  and  _343
REMARK  149  A    between atoms: _342  and  _345
REMARK  150  A    between atoms: _345  and  _346
REMARK  151  A    between atoms: _348  and  _350
REMARK  152  A    between atoms: _350  and  _351
REMARK  153  A    between atoms: _353  and  _355
REMARK  154  A    between atoms: _355  and  _356
REMARK  155  A    between atoms: _358  and  _360
REMARK  156  A    between atoms: _360  and  _361
REMARK  157  A    between atoms: _360  and  _363
REMARK  158  A    between atoms: _363  and  _364
REMARK  159  A    between atoms: _369  and  _371
REMARK  160  A    between atoms: _371  and  _372
REMARK  161  A    between atoms: _371  and  _374
REMARK  162  A    between atoms: _374  and  _375
REMARK  163  A    between atoms: _378  and  _380
REMARK  164  A    between atoms: _380  and  _381
REMARK  165  A    between atoms: _380  and  _383
REMARK  166  A    between atoms: _386  and  _388
REMARK  167  A    between atoms: _388  and  _389
REMARK  168  A    between atoms: _388  and  _391
REMARK  169  A    between atoms: _391  and  _392
REMARK  170  A    between atoms: _394  and  _396
REMARK  171  A    between atoms: _396  and  _397
REMARK  172  A    between atoms: _396  and  _399
REMARK  173  A    between atoms: _399  and  _400
REMARK  174  A    between atoms: _410  and  _412
REMARK  175  A    between atoms: _412  and  _413
REMARK  176  A    between atoms: _415  and  _417
REMARK  177  A    between atoms: _417  and  _418
REMARK  178  A    between atoms: _417  and  _420
REMARK  179  A    between atoms: _420  and  _421
REMARK  180  A    between atoms: _421  and  _422
REMARK  181  A    between atoms: _425  and  _427
REMARK  182  A    between atoms: _427  and  _428
REMARK  183  A    between atoms: _430  and  _432
REMARK  184  A    between atoms: _432  and  _433
REMARK  185  A    between atoms: _432  and  _435
REMARK  186  A    between atoms: _435  and  _436
REMARK  187  A    between atoms: _437  and  _439
REMARK  188  A    between atoms: _439  and  _440
REMARK  189  A    between atoms: _443  and  _445
REMARK  190  A    between atoms: _445  and  _446
REMARK  191  A    between atoms: _445  and  _448
REMARK  192  A    between atoms: _448  and  _449
REMARK  193  A    between atoms: _449  and  _450
REMARK  194  A    between atoms: _450  and  _451
REMARK  195  A    between atoms: _460  and  _462
REMARK  196  A    between atoms: _462  and  _463
REMARK  197  A    between atoms: _462  and  _465
REMARK  198  A    between atoms: _465  and  _466
REMARK  199  A    between atoms: _466  and  _467
REMARK  200  A    between atoms: _467  and  _468
REMARK  201  A    between atoms: _468  and  _469
REMARK  202  A    between atoms: _473  and  _475
REMARK  203  A    between atoms: _475  and  _476
REMARK  204  A    between atoms: _475  and  _478
REMARK  205  A    between atoms: _478  and  _479
REMARK  206  A    between atoms: _484  and  _485
REMARK  207  A    between atoms: _487  and  _489
REMARK  208  A    between atoms: _489  and  _490
REMARK  209  A    between atoms: _492  and  _494
REMARK  210  A    between atoms: _494  and  _495
REMARK  211  A    between atoms: _494  and  _497
REMARK  212  A    between atoms: _497  and  _498
REMARK  213  A    between atoms: _501  and  _503
REMARK  214  A    between atoms: _503  and  _504
REMARK  215  A    between atoms: _503  and  _506
REMARK  216  A    between atoms: _506  and  _507
REMARK  217  A    between atoms: _512  and  _513
REMARK  218  A    between atoms: _515  and  _517
REMARK  219  A    between atoms: _517  and  _518
REMARK  220  A    between atoms: _517  and  _520
REMARK  221  A    between atoms: _520  and  _521
REMARK                            x       y       z     vdW  Elec       q    Type
REMARK                         _______ _______ _______ _____ _____    ______ ____
ROOT
ATOM      1  O   HOH     1      18.094  63.206  11.244  0.00  0.00    +0.000 OA
ENDROOT
TORSDOF 0
REMARK  Name = ../refined-set-2016/2vwo/2vwo_pocket.pdb
REMARK  221 active torsions:
REMARK  status: ('A' for Active; 'I' for Inactive)
REMARK    1  A    between atoms: _1  and  _5
REMARK    2  A    between atoms: _5  and  _6
REMARK    3  A    between atoms: _5  and  _8
REMARK    4  A    between atoms: _8  and  _9
REMARK    5  A    between atoms: _12  and  _14
REMARK    6  A    between atoms: _14  and  _15
REMARK    7  A    between atoms: _14  and  _17
REMARK    8  A    between atoms: _20  and  _22
REMARK    9  A    between atoms: _22  and  _23
REMARK   10  A    between atoms: _22  and  _25
REMARK   11  A    between atoms: _25  and  _26
REMARK   12  A    between atoms: _31  and  _33
REMARK   13  A    between atoms: _33  and  _34
REMARK   14  A    between atoms: _33  and  _36
REMARK   15  A    between atoms: _36  and  _37
REMARK   16  A    between atoms: _37  and  _38
REMARK   17  A    between atoms: _43  and  _45
REMARK   18  A    between atoms: _45  and  _46
REMARK   19  A    between atoms: _45  and  _48
REMARK   20  A    between atoms: _48  and  _49
REMARK   21  A    between atoms: _52  and  _54
REMARK   22  A    between atoms: _54  and  _55
REMARK   23  A    between atoms: _54  and  _57
REMARK   24  A    between atoms: _57  and  _58
REMARK   25  A    between atoms: _58  and  _59
REMARK   26  A    between atoms: _59  and  _60
REMARK   27  A    between atoms: _60  and  _61
REMARK   28  A    between atoms: _65  and  _67
REMARK   29  A    between atoms: _67  and  _68
REMARK   30  A    between atoms: _67  and  _70
REMARK   31  A    between atoms: _70  and  _71
REMARK   32  A    between atoms: _71  and  _72
REMARK   33  A    between atoms: _75  and  _77
REMARK   34  A    between atoms: _77  and  _78
REMARK   35  A    between atoms: _77  and  _80
REMARK   36  A    between atoms: _80  and  _81
REMARK   37  A    between atoms: _84  and  _86
REMARK   38  A    between atoms: _86  and  _87
REMARK   39  A    between atoms: _86  and  _89
REMARK   40  A    between atoms: _89  and  _90
REMARK   41  A    between atoms: _95  and  _96
REMARK   42  A    between atoms: _98  and  _100
REMARK   43  A    between atoms: _100  and  _101
REMARK   44  A    between atoms: _100  and  _103
REMARK   45  A    between atoms: _103  and  _104
REMARK   46  A    between atoms: _107  and  _109
REMARK   47  A    between atoms: _109  and  _110
REMARK   48  A    between atoms: _109  and  _112
REMARK   49  A    between atoms: _112  and  _113
REMARK   50  A    between atoms: _116  and  _118
REMARK   51  A    between atoms: _118  and  _119
REMARK   52  A    between atoms: _118  and  _121
REMARK   53  A    between atoms: _124  and  _126
REMARK   54  A    between atoms: _126  and  _127
REMARK   55  A    between atoms: _126  and  _129
REMARK   56  A    between atoms: _129  and  _130
REMARK   57  A    between atoms: _130  and  _131
REMARK   58  A    between atoms: _131  and  _132
REMARK   59  A    between atoms: _141  and  _143
REMARK   60  A    between atoms: _143  and  _144
REMARK   61  A    between atoms: _143  and  _146
REMARK   62  A    between atoms: _146  and  _147
REMARK   63  A    between atoms: _152  and  _154
REMARK   64  A    between atoms: _154  and  _155
REMARK   65  A    between atoms: _154  and  _157
REMARK   66  A    between atoms: _157  and  _158
REMARK   67  A    between atoms: _158  and  _159
REMARK   68  A    between atoms: _162  and  _164
REMARK   69  A    between atoms: _164  and  _165
REMARK   70  A    between atoms: _164  and  _167
REMARK   71  A    between atoms: _167  and  _168
REMARK   72  A    between atoms: _168  and  _169
REMARK   73  A    between atoms: _169  and  _170
REMARK   74  A    between atoms: _170  and  _171
REMARK   75  A    between atoms: _175  and  _177
REMARK   76  A    between atoms: _177  and  _178
REMARK   77  A    between atoms: _180  and  _182
REMARK   78  A    between atoms: _182  and  _183
REMARK   79  A    between atoms: _182  and  _185
REMARK   80  A    between atoms: _188  and  _190
REMARK   81  A    between atoms: _190  and  _191
REMARK   82  A    between atoms: _190  and  _193
REMARK   83  A    between atoms: _193  and  _194
REMARK   84  A    between atoms: _196  and  _198
REMARK   85  A    between atoms: _198  and  _199
REMARK   86  A    between atoms: _198  and  _201
REMARK   87  A    between atoms: _201  and  _202
REMARK   88  A    between atoms: _204  and  _206
REMARK   89  A    between atoms: _206  and  _207
REMARK   90  A    between atoms: _206  and  _209
REMARK   91  A    between atoms: _209  and  _210
REMARK   92  A    between atoms: _216  and  _218
REMARK   93  A    between atoms: _218  and  _219
REMARK   94  A    between atoms: _218  and  _221
REMARK   95  A    between atoms: _221  and  _222
REMARK   96  A    between atoms: _225  and  _227
REMARK   97  A    between atoms: _227  and  _228
REMARK   98  A    between atoms: _227  and  _230
REMARK   99  A    between atoms: _230  and  _231
REMARK  100  A    between atoms: _234  and  _236
REMARK  101  A    between atoms: _236  and  _237
REMARK  102  A    between atoms: _236  and  _239
REMARK  103  A    between atoms: _239  and  _240
REMARK  104  A    between atoms: _243  and  _245
REMARK  105  A    between atoms: _245  and  _246
REMARK  106  A    between atoms: _245  and  _248
REMARK  107  A    between atoms: _248  and  _249
REMARK  108  A    between atoms: _249  and  _250
REMARK  109  A    between atoms: _252  and  _254
REMARK  110  A    between atoms: _254  and  _255
REMARK  111  A    between atoms: _254  and  _257
REMARK  112  A    between atoms: _257  and  _258
REMARK  113  A    between atoms: _264  and  _266
REMARK  114  A    between atoms: _266  and  _267
REMARK  115  A    between atoms: _266  and  _269
REMARK  116  A    between atoms: _271  and  _273
REMARK  117  A    between atoms: _273  and  _274
REMARK  118  A    between atoms: _277  and  _279
REMARK  119  A    between atoms: _279  and  _280
REMARK  120  A    between atoms: _282  and  _284
REMARK  121  A    between atoms: _284  and  _285
REMARK  122  A    between atoms: _284  and  _287
REMARK  123  A    between atoms: _287  and  _288
REMARK  124  A    between atoms: _288  and  _289
REMARK  125  A    between atoms: _292  and  _294
REMARK  126  A    between atoms: _294  and  _295
REMARK  127  A    between atoms: _294  and  _297
REMARK  128  A    between atoms: _297  and  _298
REMARK  129  A    between atoms: _301  and  _303
REMARK  130  A    between atoms: _303  and  _304
REMARK  131  A    between atoms: _307  and  _309
REMARK  132  A    between atoms: _309  and  _310
REMARK  133  A    between atoms: _309  and  _312
REMARK  134  A    between atoms: _312  and  _313
REMARK  135  A    between atoms: _313  and  _436
REMARK  136  A    between atoms: _314  and  _316
REMARK  137  A    between atoms: _316  and  _317
REMARK  138  A    between atoms: _316  and  _319
REMARK  139  A    between atoms: _319  and  _320
REMARK  140  A    between atoms: _320  and  _321
REMARK  141  A    between atoms: _326  and  _328
REMARK  142  A    between atoms: _328  and  _329
REMARK  143  A    between atoms: _331  and  _333
REMARK  144  A    between atoms: _333  and  _334
REMARK  145  A    between atoms: _333  and  _336
REMARK  146  A    between atoms: _336  and  _337
REMARK  147  A    between atoms: _340  and  _342
REMARK  148  A    between atoms: _342  and  _343
REMARK  149  A    between atoms: _342  and  _345
REMARK  150  A    between atoms: _345  and  _346
REMARK  151  A    between atoms: _348  and  _350
REMARK  152  A    between atoms: _350  and  _351
REMARK  153  A    between atoms: _353  and  _355
REMARK  154  A    between atoms: _355  and  _356
REMARK  155  A    between atoms: _358  and  _360
REMARK  156  A    between atoms: _360  and  _361
REMARK  157  A    between atoms: _360  and  _363
REMARK  158  A    between atoms: _363  and  _364
REMARK  159  A    between atoms: _369  and  _371
REMARK  160  A    between atoms: _371  and  _372
REMARK  161  A    between atoms: _371  and  _374
REMARK  162  A    between atoms: _374  and  _375
REMARK  163  A    between atoms: _378  and  _380
REMARK  164  A    between atoms: _380  and  _381
REMARK  165  A    between atoms: _380  and  _383
REMARK  166  A    between atoms: _386  and  _388
REMARK  167  A    between atoms: _388  and  _389
REMARK  168  A    between atoms: _388  and  _391
REMARK  169  A    between atoms: _391  and  _392
REMARK  170  A    between atoms: _394  and  _396
REMARK  171  A    between atoms: _396  and  _397
REMARK  172  A    between atoms: _396  and  _399
REMARK  173  A    between atoms: _399  and  _400
REMARK  174  A    between atoms: _410  and  _412
REMARK  175  A    between atoms: _412  and  _413
REMARK  176  A    between atoms: _415  and  _417
REMARK  177  A    between atoms: _417  and  _418
REMARK  178  A    between atoms: _417  and  _420
REMARK  179  A    between atoms: _420  and  _421
REMARK  180  A    between atoms: _421  and  _422
REMARK  181  A    between atoms: _425  and  _427
REMARK  182  A    between atoms: _427  and  _428
REMARK  183  A    between atoms: _430  and  _432
REMARK  184  A    between atoms: _432  and  _433
REMARK  185  A    between atoms: _432  and  _435
REMARK  186  A    between atoms: _435  and  _436
REMARK  187  A    between atoms: _437  and  _439
REMARK  188  A    between atoms: _439  and  _440
REMARK  189  A    between atoms: _443  and  _445
REMARK  190  A    between atoms: _445  and  _446
REMARK  191  A    between atoms: _445  and  _448
REMARK  192  A    between atoms: _448  and  _449
REMARK  193  A    between atoms: _449  and  _450
REMARK  194  A    between atoms: _450  and  _451
REMARK  195  A    between atoms: _460  and  _462
REMARK  196  A    between atoms: _462  and  _463
REMARK  197  A    between atoms: _462  and  _465
REMARK  198  A    between atoms: _465  and  _466
REMARK  199  A    between atoms: _466  and  _467
REMARK  200  A    between atoms: _467  and  _468
REMARK  201  A    between atoms: _468  and  _469
REMARK  202  A    between atoms: _473  and  _475
REMARK  203  A    between atoms: _475  and  _476
REMARK  204  A    between atoms: _475  and  _478
REMARK  205  A    between atoms: _478  and  _479
REMARK  206  A    between atoms: _484  and  _485
REMARK  207  A    between atoms: _487  and  _489
REMARK  208  A    between atoms: _489  and  _490
REMARK  209  A    between atoms: _492  and  _494
REMARK  210  A    between atoms: _494  and  _495
REMARK  211  A    between atoms: _494  and  _497
REMARK  212  A    between atoms: _497  and  _498
REMARK  213  A    between atoms: _501  and  _503
REMARK  214  A    between atoms: _503  and  _504
REMARK  215  A    between atoms: _503  and  _506
REMARK  216  A    between atoms: _506  and  _507
REMARK  217  A    between atoms: _512  and  _513
REMARK  218  A    between atoms: _515  and  _517
REMARK  219  A    between atoms: _517  and  _518
REMARK  220  A    between atoms: _517  and  _520
REMARK  221  A    between atoms: _520  and  _521
REMARK                            x       y       z     vdW  Elec       q    Type
REMARK                         _______ _______ _______ _____ _____    ______ ____
ROOT
ATOM      1  O   HOH     1       9.702  65.577  -1.438  0.00  0.00    +0.000 OA
ENDROOT
TORSDOF 0
REMARK  Name = ../refined-set-2016/2vwo/2vwo_pocket.pdb
REMARK  221 active torsions:
REMARK  status: ('A' for Active; 'I' for Inactive)
REMARK    1  A    between atoms: _1  and  _5
REMARK    2  A    between atoms: _5  and  _6
REMARK    3  A    between atoms: _5  and  _8
REMARK    4  A    between atoms: _8  and  _9
REMARK    5  A    between atoms: _12  and  _14
REMARK    6  A    between atoms: _14  and  _15
REMARK    7  A    between atoms: _14  and  _17
REMARK    8  A    between atoms: _20  and  _22
REMARK    9  A    between atoms: _22  and  _23
REMARK   10  A    between atoms: _22  and  _25
REMARK   11  A    between atoms: _25  and  _26
REMARK   12  A    between atoms: _31  and  _33
REMARK   13  A    between atoms: _33  and  _34
REMARK   14  A    between atoms: _33  and  _36
REMARK   15  A    between atoms: _36  and  _37
REMARK   16  A    between atoms: _37  and  _38
REMARK   17  A    between atoms: _43  and  _45
REMARK   18  A    between atoms: _45  and  _46
REMARK   19  A    between atoms: _45  and  _48
REMARK   20  A    between atoms: _48  and  _49
REMARK   21  A    between atoms: _52  and  _54
REMARK   22  A    between atoms: _54  and  _55
REMARK   23  A    between atoms: _54  and  _57
REMARK   24  A    between atoms: _57  and  _58
REMARK   25  A    between atoms: _58  and  _59
REMARK   26  A    between atoms: _59  and  _60
REMARK   27  A    between atoms: _60  and  _61
REMARK   28  A    between atoms: _65  and  _67
REMARK   29  A    between atoms: _67  and  _68
REMARK   30  A    between atoms: _67  and  _70
REMARK   31  A    between atoms: _70  and  _71
REMARK   32  A    between atoms: _71  and  _72
REMARK   33  A    between atoms: _75  and  _77
REMARK   34  A    between atoms: _77  and  _78
REMARK   35  A    between atoms: _77  and  _80
REMARK   36  A    between atoms: _80  and  _81
REMARK   37  A    between atoms: _84  and  _86
REMARK   38  A    between atoms: _86  and  _87
REMARK   39  A    between atoms: _86  and  _89
REMARK   40  A    between atoms: _89  and  _90
REMARK   41  A    between atoms: _95  and  _96
REMARK   42  A    between atoms: _98  and  _100
REMARK   43  A    between atoms: _100  and  _101
REMARK   44  A    between atoms: _100  and  _103
REMARK   45  A    between atoms: _103  and  _104
REMARK   46  A    between atoms: _107  and  _109
REMARK   47  A    between atoms: _109  and  _110
REMARK   48  A    between atoms: _109  and  _112
REMARK   49  A    between atoms: _112  and  _113
REMARK   50  A    between atoms: _116  and  _118
REMARK   51  A    between atoms: _118  and  _119
REMARK   52  A    between atoms: _118  and  _121
REMARK   53  A    between atoms: _124  and  _126
REMARK   54  A    between atoms: _126  and  _127
REMARK   55  A    between atoms: _126  and  _129
REMARK   56  A    between atoms: _129  and  _130
REMARK   57  A    between atoms: _130  and  _131
REMARK   58  A    between atoms: _131  and  _132
REMARK   59  A    between atoms: _141  and  _143
REMARK   60  A    between atoms: _143  and  _144
REMARK   61  A    between atoms: _143  and  _146
REMARK   62  A    between atoms: _146  and  _147
REMARK   63  A    between atoms: _152  and  _154
REMARK   64  A    between atoms: _154  and  _155
REMARK   65  A    between atoms: _154  and  _157
REMARK   66  A    between atoms: _157  and  _158
REMARK   67  A    between atoms: _158  and  _159
REMARK   68  A    between atoms: _162  and  _164
REMARK   69  A    between atoms: _164  and  _165
REMARK   70  A    between atoms: _164  and  _167
REMARK   71  A    between atoms: _167  and  _168
REMARK   72  A    between atoms: _168  and  _169
REMARK   73  A    between atoms: _169  and  _170
REMARK   74  A    between atoms: _170  and  _171
REMARK   75  A    between atoms: _175  and  _177
REMARK   76  A    between atoms: _177  and  _178
REMARK   77  A    between atoms: _180  and  _182
REMARK   78  A    between atoms: _182  and  _183
REMARK   79  A    between atoms: _182  and  _185
REMARK   80  A    between atoms: _188  and  _190
REMARK   81  A    between atoms: _190  and  _191
REMARK   82  A    between atoms: _190  and  _193
REMARK   83  A    between atoms: _193  and  _194
REMARK   84  A    between atoms: _196  and  _198
REMARK   85  A    between atoms: _198  and  _199
REMARK   86  A    between atoms: _198  and  _201
REMARK   87  A    between atoms: _201  and  _202
REMARK   88  A    between atoms: _204  and  _206
REMARK   89  A    between atoms: _206  and  _207
REMARK   90  A    between atoms: _206  and  _209
REMARK   91  A    between atoms: _209  and  _210
REMARK   92  A    between atoms: _216  and  _218
REMARK   93  A    between atoms: _218  and  _219
REMARK   94  A    between atoms: _218  and  _221
REMARK   95  A    between atoms: _221  and  _222
REMARK   96  A    between atoms: _225  and  _227
REMARK   97  A    between atoms: _227  and  _228
REMARK   98  A    between atoms: _227  and  _230
REMARK   99  A    between atoms: _230  and  _231
REMARK  100  A    between atoms: _234  and  _236
REMARK  101  A    between atoms: _236  and  _237
REMARK  102  A    between atoms: _236  and  _239
REMARK  103  A    between atoms: _239  and  _240
REMARK  104  A    between atoms: _243  and  _245
REMARK  105  A    between atoms: _245  and  _246
REMARK  106  A    between atoms: _245  and  _248
REMARK  107  A    between atoms: _248  and  _249
REMARK  108  A    between atoms: _249  and  _250
REMARK  109  A    between atoms: _252  and  _254
REMARK  110  A    between atoms: _254  and  _255
REMARK  111  A    between atoms: _254  and  _257
REMARK  112  A    between atoms: _257  and  _258
REMARK  113  A    between atoms: _264  and  _266
REMARK  114  A    between atoms: _266  and  _267
REMARK  115  A    between atoms: _266  and  _269
REMARK  116  A    between atoms: _271  and  _273
REMARK  117  A    between atoms: _273  and  _274
REMARK  118  A    between atoms: _277  and  _279
REMARK  119  A    between atoms: _279  and  _280
REMARK  120  A    between atoms: _282  and  _284
REMARK  121  A    between atoms: _284  and  _285
REMARK  122  A    between atoms: _284  and  _287
REMARK  123  A    between atoms: _287  and  _288
REMARK  124  A    between atoms: _288  and  _289
REMARK  125  A    between atoms: _292  and  _294
REMARK  126  A    between atoms: _294  and  _295
REMARK  127  A    between atoms: _294  and  _297
REMARK  128  A    between atoms: _297  and  _298
REMARK  129  A    between atoms: _301  and  _303
REMARK  130  A    between atoms: _303  and  _304
REMARK  131  A    between atoms: _307  and  _309
REMARK  132  A    between atoms: _309  and  _310
REMARK  133  A    between atoms: _309  and  _312
REMARK  134  A    between atoms: _312  and  _313
REMARK  135  A    between atoms: _313  and  _436
REMARK  136  A    between atoms: _314  and  _316
REMARK  137  A    between atoms: _316  and  _317
REMARK  138  A    between atoms: _316  and  _319
REMARK  139  A    between atoms: _319  and  _320
REMARK  140  A    between atoms: _320  and  _321
REMARK  141  A    between atoms: _326  and  _328
REMARK  142  A    between atoms: _328  and  _329
REMARK  143  A    between atoms: _331  and  _333
REMARK  144  A    between atoms: _333  and  _334
REMARK  145  A    between atoms: _333  and  _336
REMARK  146  A    between atoms: _336  and  _337
REMARK  147  A    between atoms: _340  and  _342
REMARK  148  A    between atoms: _342  and  _343
REMARK  149  A    between atoms: _342  and  _345
REMARK  150  A    between atoms: _345  and  _346
REMARK  151  A    between atoms: _348  and  _350
REMARK  152  A    between atoms: _350  and  _351
REMARK  153  A    between atoms: _353  and  _355
REMARK  154  A    between atoms: _355  and  _356
REMARK  155  A    between atoms: _358  and  _360
REMARK  156  A    between atoms: _360  and  _361
REMARK  157  A    between atoms: _360  and  _363
REMARK  158  A    between atoms: _363  and  _364
REMARK  159  A    between atoms: _369  and  _371
REMARK  160  A    between atoms: _371  and  _372
REMARK  161  A    between atoms: _371  and  _374
REMARK  162  A    between atoms: _374  and  _375
REMARK  163  A    between atoms: _378  and  _380
REMARK  164  A    between atoms: _380  and  _381
REMARK  165  A    between atoms: _380  and  _383
REMARK  166  A    between atoms: _386  and  _388
REMARK  167  A    between atoms: _388  and  _389
REMARK  168  A    between atoms: _388  and  _391
REMARK  169  A    between atoms: _391  and  _392
REMARK  170  A    between atoms: _394  and  _396
REMARK  171  A    between atoms: _396  and  _397
REMARK  172  A    between atoms: _396  and  _399
REMARK  173  A    between atoms: _399  and  _400
REMARK  174  A    between atoms: _410  and  _412
REMARK  175  A    between atoms: _412  and  _413
REMARK  176  A    between atoms: _415  and  _417
REMARK  177  A    between atoms: _417  and  _418
REMARK  178  A    between atoms: _417  and  _420
REMARK  179  A    between atoms: _420  and  _421
REMARK  180  A    between atoms: _421  and  _422
REMARK  181  A    between atoms: _425  and  _427
REMARK  182  A    between atoms: _427  and  _428
REMARK  183  A    between atoms: _430  and  _432
REMARK  184  A    between atoms: _432  and  _433
REMARK  185  A    between atoms: _432  and  _435
REMARK  186  A    between atoms: _435  and  _436
REMARK  187  A    between atoms: _437  and  _439
REMARK  188  A    between atoms: _439  and  _440
REMARK  189  A    between atoms: _443  and  _445
REMARK  190  A    between atoms: _445  and  _446
REMARK  191  A    between atoms: _445  and  _448
REMARK  192  A    between atoms: _448  and  _449
REMARK  193  A    between atoms: _449  and  _450
REMARK  194  A    between atoms: _450  and  _451
REMARK  195  A    between atoms: _460  and  _462
REMARK  196  A    between atoms: _462  and  _463
REMARK  197  A    between atoms: _462  and  _465
REMARK  198  A    between atoms: _465  and  _466
REMARK  199  A    between atoms: _466  and  _467
REMARK  200  A    between atoms: _467  and  _468
REMARK  201  A    between atoms: _468  and  _469
REMARK  202  A    between atoms: _473  and  _475
REMARK  203  A    between atoms: _475  and  _476
REMARK  204  A    between atoms: _475  and  _478
REMARK  205  A    between atoms: _478  and  _479
REMARK  206  A    between atoms: _484  and  _485
REMARK  207  A    between atoms: _487  and  _489
REMARK  208  A    between atoms: _489  and  _490
REMARK  209  A    between atoms: _492  and  _494
REMARK  210  A    between atoms: _494  and  _495
REMARK  211  A    between atoms: _494  and  _497
REMARK  212  A    between atoms: _497  and  _498
REMARK  213  A    between atoms: _501  and  _503
REMARK  214  A    between atoms: _503  and  _504
REMARK  215  A    between atoms: _503  and  _506
REMARK  216  A    between atoms: _506  and  _507
REMARK  217  A    between atoms: _512  and  _513
REMARK  218  A    between atoms: _515  and  _517
REMARK  219  A    between atoms: _517  and  _518
REMARK  220  A    between atoms: _517  and  _520
REMARK  221  A    between atoms: _520  and  _521
REMARK                            x       y       z     vdW  Elec       q    Type
REMARK                         _______ _______ _______ _____ _____    ______ ____
ROOT
ATOM      1  O   HOH     1      13.621  64.410  -2.099  0.00  0.00    +0.000 OA
ENDROOT
TORSDOF 0
REMARK  Name = ../refined-set-2016/2vwo/2vwo_pocket.pdb
REMARK  221 active torsions:
REMARK  status: ('A' for Active; 'I' for Inactive)
REMARK    1  A    between atoms: _1  and  _5
REMARK    2  A    between atoms: _5  and  _6
REMARK    3  A    between atoms: _5  and  _8
REMARK    4  A    between atoms: _8  and  _9
REMARK    5  A    between atoms: _12  and  _14
REMARK    6  A    between atoms: _14  and  _15
REMARK    7  A    between atoms: _14  and  _17
REMARK    8  A    between atoms: _20  and  _22
REMARK    9  A    between atoms: _22  and  _23
REMARK   10  A    between atoms: _22  and  _25
REMARK   11  A    between atoms: _25  and  _26
REMARK   12  A    between atoms: _31  and  _33
REMARK   13  A    between atoms: _33  and  _34
REMARK   14  A    between atoms: _33  and  _36
REMARK   15  A    between atoms: _36  and  _37
REMARK   16  A    between atoms: _37  and  _38
REMARK   17  A    between atoms: _43  and  _45
REMARK   18  A    between atoms: _45  and  _46
REMARK   19  A    between atoms: _45  and  _48
REMARK   20  A    between atoms: _48  and  _49
REMARK   21  A    between atoms: _52  and  _54
REMARK   22  A    between atoms: _54  and  _55
REMARK   23  A    between atoms: _54  and  _57
REMARK   24  A    between atoms: _57  and  _58
REMARK   25  A    between atoms: _58  and  _59
REMARK   26  A    between atoms: _59  and  _60
REMARK   27  A    between atoms: _60  and  _61
REMARK   28  A    between atoms: _65  and  _67
REMARK   29  A    between atoms: _67  and  _68
REMARK   30  A    between atoms: _67  and  _70
REMARK   31  A    between atoms: _70  and  _71
REMARK   32  A    between atoms: _71  and  _72
REMARK   33  A    between atoms: _75  and  _77
REMARK   34  A    between atoms: _77  and  _78
REMARK   35  A    between atoms: _77  and  _80
REMARK   36  A    between atoms: _80  and  _81
REMARK   37  A    between atoms: _84  and  _86
REMARK   38  A    between atoms: _86  and  _87
REMARK   39  A    between atoms: _86  and  _89
REMARK   40  A    between atoms: _89  and  _90
REMARK   41  A    between atoms: _95  and  _96
REMARK   42  A    between atoms: _98  and  _100
REMARK   43  A    between atoms: _100  and  _101
REMARK   44  A    between atoms: _100  and  _103
REMARK   45  A    between atoms: _103  and  _104
REMARK   46  A    between atoms: _107  and  _109
REMARK   47  A    between atoms: _109  and  _110
REMARK   48  A    between atoms: _109  and  _112
REMARK   49  A    between atoms: _112  and  _113
REMARK   50  A    between atoms: _116  and  _118
REMARK   51  A    between atoms: _118  and  _119
REMARK   52  A    between atoms: _118  and  _121
REMARK   53  A    between atoms: _124  and  _126
REMARK   54  A    between atoms: _126  and  _127
REMARK   55  A    between atoms: _126  and  _129
REMARK   56  A    between atoms: _129  and  _130
REMARK   57  A    between atoms: _130  and  _131
REMARK   58  A    between atoms: _131  and  _132
REMARK   59  A    between atoms: _141  and  _143
REMARK   60  A    between atoms: _143  and  _144
REMARK   61  A    between atoms: _143  and  _146
REMARK   62  A    between atoms: _146  and  _147
REMARK   63  A    between atoms: _152  and  _154
REMARK   64  A    between atoms: _154  and  _155
REMARK   65  A    between atoms: _154  and  _157
REMARK   66  A    between atoms: _157  and  _158
REMARK   67  A    between atoms: _158  and  _159
REMARK   68  A    between atoms: _162  and  _164
REMARK   69  A    between atoms: _164  and  _165
REMARK   70  A    between atoms: _164  and  _167
REMARK   71  A    between atoms: _167  and  _168
REMARK   72  A    between atoms: _168  and  _169
REMARK   73  A    between atoms: _169  and  _170
REMARK   74  A    between atoms: _170  and  _171
REMARK   75  A    between atoms: _175  and  _177
REMARK   76  A    between atoms: _177  and  _178
REMARK   77  A    between atoms: _180  and  _182
REMARK   78  A    between atoms: _182  and  _183
REMARK   79  A    between atoms: _182  and  _185
REMARK   80  A    between atoms: _188  and  _190
REMARK   81  A    between atoms: _190  and  _191
REMARK   82  A    between atoms: _190  and  _193
REMARK   83  A    between atoms: _193  and  _194
REMARK   84  A    between atoms: _196  and  _198
REMARK   85  A    between atoms: _198  and  _199
REMARK   86  A    between atoms: _198  and  _201
REMARK   87  A    between atoms: _201  and  _202
REMARK   88  A    between atoms: _204  and  _206
REMARK   89  A    between atoms: _206  and  _207
REMARK   90  A    between atoms: _206  and  _209
REMARK   91  A    between atoms: _209  and  _210
REMARK   92  A    between atoms: _216  and  _218
REMARK   93  A    between atoms: _218  and  _219
REMARK   94  A    between atoms: _218  and  _221
REMARK   95  A    between atoms: _221  and  _222
REMARK   96  A    between atoms: _225  and  _227
REMARK   97  A    between atoms: _227  and  _228
REMARK   98  A    between atoms: _227  and  _230
REMARK   99  A    between atoms: _230  and  _231
REMARK  100  A    between atoms: _234  and  _236
REMARK  101  A    between atoms: _236  and  _237
REMARK  102  A    between atoms: _236  and  _239
REMARK  103  A    between atoms: _239  and  _240
REMARK  104  A    between atoms: _243  and  _245
REMARK  105  A    between atoms: _245  and  _246
REMARK  106  A    between atoms: _245  and  _248
REMARK  107  A    between atoms: _248  and  _249
REMARK  108  A    between atoms: _249  and  _250
REMARK  109  A    between atoms: _252  and  _254
REMARK  110  A    between atoms: _254  and  _255
REMARK  111  A    between atoms: _254  and  _257
REMARK  112  A    between atoms: _257  and  _258
REMARK  113  A    between atoms: _264  and  _266
REMARK  114  A    between atoms: _266  and  _267
REMARK  115  A    between atoms: _266  and  _269
REMARK  116  A    between atoms: _271  and  _273
REMARK  117  A    between atoms: _273  and  _274
REMARK  118  A    between atoms: _277  and  _279
REMARK  119  A    between atoms: _279  and  _280
REMARK  120  A    between atoms: _282  and  _284
REMARK  121  A    between atoms: _284  and  _285
REMARK  122  A    between atoms: _284  and  _287
REMARK  123  A    between atoms: _287  and  _288
REMARK  124  A    between atoms: _288  and  _289
REMARK  125  A    between atoms: _292  and  _294
REMARK  126  A    between atoms: _294  and  _295
REMARK  127  A    between atoms: _294  and  _297
REMARK  128  A    between atoms: _297  and  _298
REMARK  129  A    between atoms: _301  and  _303
REMARK  130  A    between atoms: _303  and  _304
REMARK  131  A    between atoms: _307  and  _309
REMARK  132  A    between atoms: _309  and  _310
REMARK  133  A    between atoms: _309  and  _312
REMARK  134  A    between atoms: _312  and  _313
REMARK  135  A    between atoms: _313  and  _436
REMARK  136  A    between atoms: _314  and  _316
REMARK  137  A    between atoms: _316  and  _317
REMARK  138  A    between atoms: _316  and  _319
REMARK  139  A    between atoms: _319  and  _320
REMARK  140  A    between atoms: _320  and  _321
REMARK  141  A    between atoms: _326  and  _328
REMARK  142  A    between atoms: _328  and  _329
REMARK  143  A    between atoms: _331  and  _333
REMARK  144  A    between atoms: _333  and  _334
REMARK  145  A    between atoms: _333  and  _336
REMARK  146  A    between atoms: _336  and  _337
REMARK  147  A    between atoms: _340  and  _342
REMARK  148  A    between atoms: _342  and  _343
REMARK  149  A    between atoms: _342  and  _345
REMARK  150  A    between atoms: _345  and  _346
REMARK  151  A    between atoms: _348  and  _350
REMARK  152  A    between atoms: _350  and  _351
REMARK  153  A    between atoms: _353  and  _355
REMARK  154  A    between atoms: _355  and  _356
REMARK  155  A    between atoms: _358  and  _360
REMARK  156  A    between atoms: _360  and  _361
REMARK  157  A    between atoms: _360  and  _363
REMARK  158  A    between atoms: _363  and  _364
REMARK  159  A    between atoms: _369  and  _371
REMARK  160  A    between atoms: _371  and  _372
REMARK  161  A    between atoms: _371  and  _374
REMARK  162  A    between atoms: _374  and  _375
REMARK  163  A    between atoms: _378  and  _380
REMARK  164  A    between atoms: _380  and  _381
REMARK  165  A    between atoms: _380  and  _383
REMARK  166  A    between atoms: _386  and  _388
REMARK  167  A    between atoms: _388  and  _389
REMARK  168  A    between atoms: _388  and  _391
REMARK  169  A    between atoms: _391  and  _392
REMARK  170  A    between atoms: _394  and  _396
REMARK  171  A    between atoms: _396  and  _397
REMARK  172  A    between atoms: _396  and  _399
REMARK  173  A    between atoms: _399  and  _400
REMARK  174  A    between atoms: _410  and  _412
REMARK  175  A    between atoms: _412  and  _413
REMARK  176  A    between atoms: _415  and  _417
REMARK  177  A    between atoms: _417  and  _418
REMARK  178  A    between atoms: _417  and  _420
REMARK  179  A    between atoms: _420  and  _421
REMARK  180  A    between atoms: _421  and  _422
REMARK  181  A    between atoms: _425  and  _427
REMARK  182  A    between atoms: _427  and  _428
REMARK  183  A    between atoms: _430  and  _432
REMARK  184  A    between atoms: _432  and  _433
REMARK  185  A    between atoms: _432  and  _435
REMARK  186  A    between atoms: _435  and  _436
REMARK  187  A    between atoms: _437  and  _439
REMARK  188  A    between atoms: _439  and  _440
REMARK  189  A    between atoms: _443  and  _445
REMARK  190  A    between atoms: _445  and  _446
REMARK  191  A    between atoms: _445  and  _448
REMARK  192  A    between atoms: _448  and  _449
REMARK  193  A    between atoms: _449  and  _450
REMARK  194  A    between atoms: _450  and  _451
REMARK  195  A    between atoms: _460  and  _462
REMARK  196  A    between atoms: _462  and  _463
REMARK  197  A    between atoms: _462  and  _465
REMARK  198  A    between atoms: _465  and  _466
REMARK  199  A    between atoms: _466  and  _467
REMARK  200  A    between atoms: _467  and  _468
REMARK  201  A    between atoms: _468  and  _469
REMARK  202  A    between atoms: _473  and  _475
REMARK  203  A    between atoms: _475  and  _476
REMARK  204  A    between atoms: _475  and  _478
REMARK  205  A    between atoms: _478  and  _479
REMARK  206  A    between atoms: _484  and  _485
REMARK  207  A    between atoms: _487  and  _489
REMARK  208  A    between atoms: _489  and  _490
REMARK  209  A    between atoms: _492  and  _494
REMARK  210  A    between atoms: _494  and  _495
REMARK  211  A    between atoms: _494  and  _497
REMARK  212  A    between atoms: _497  and  _498
REMARK  213  A    between atoms: _501  and  _503
REMARK  214  A    between atoms: _503  and  _504
REMARK  215  A    between atoms: _503  and  _506
REMARK  216  A    between atoms: _506  and  _507
REMARK  217  A    between atoms: _512  and  _513
REMARK  218  A    between atoms: _515  and  _517
REMARK  219  A    between atoms: _517  and  _518
REMARK  220  A    between atoms: _517  and  _520
REMARK  221  A    between atoms: _520  and  _521
REMARK                            x       y       z     vdW  Elec       q    Type
REMARK                         _______ _______ _______ _____ _____    ______ ____
ROOT
ATOM      1  O   HOH     1      15.932  66.102  -1.644  0.00  0.00    +0.000 OA
ENDROOT
TORSDOF 0
REMARK  Name = ../refined-set-2016/2vwo/2vwo_pocket.pdb
REMARK  221 active torsions:
REMARK  status: ('A' for Active; 'I' for Inactive)
REMARK    1  A    between atoms: _1  and  _5
REMARK    2  A    between atoms: _5  and  _6
REMARK    3  A    between atoms: _5  and  _8
REMARK    4  A    between atoms: _8  and  _9
REMARK    5  A    between atoms: _12  and  _14
REMARK    6  A    between atoms: _14  and  _15
REMARK    7  A    between atoms: _14  and  _17
REMARK    8  A    between atoms: _20  and  _22
REMARK    9  A    between atoms: _22  and  _23
REMARK   10  A    between atoms: _22  and  _25
REMARK   11  A    between atoms: _25  and  _26
REMARK   12  A    between atoms: _31  and  _33
REMARK   13  A    between atoms: _33  and  _34
REMARK   14  A    between atoms: _33  and  _36
REMARK   15  A    between atoms: _36  and  _37
REMARK   16  A    between atoms: _37  and  _38
REMARK   17  A    between atoms: _43  and  _45
REMARK   18  A    between atoms: _45  and  _46
REMARK   19  A    between atoms: _45  and  _48
REMARK   20  A    between atoms: _48  and  _49
REMARK   21  A    between atoms: _52  and  _54
REMARK   22  A    between atoms: _54  and  _55
REMARK   23  A    between atoms: _54  and  _57
REMARK   24  A    between atoms: _57  and  _58
REMARK   25  A    between atoms: _58  and  _59
REMARK   26  A    between atoms: _59  and  _60
REMARK   27  A    between atoms: _60  and  _61
REMARK   28  A    between atoms: _65  and  _67
REMARK   29  A    between atoms: _67  and  _68
REMARK   30  A    between atoms: _67  and  _70
REMARK   31  A    between atoms: _70  and  _71
REMARK   32  A    between atoms: _71  and  _72
REMARK   33  A    between atoms: _75  and  _77
REMARK   34  A    between atoms: _77  and  _78
REMARK   35  A    between atoms: _77  and  _80
REMARK   36  A    between atoms: _80  and  _81
REMARK   37  A    between atoms: _84  and  _86
REMARK   38  A    between atoms: _86  and  _87
REMARK   39  A    between atoms: _86  and  _89
REMARK   40  A    between atoms: _89  and  _90
REMARK   41  A    between atoms: _95  and  _96
REMARK   42  A    between atoms: _98  and  _100
REMARK   43  A    between atoms: _100  and  _101
REMARK   44  A    between atoms: _100  and  _103
REMARK   45  A    between atoms: _103  and  _104
REMARK   46  A    between atoms: _107  and  _109
REMARK   47  A    between atoms: _109  and  _110
REMARK   48  A    between atoms: _109  and  _112
REMARK   49  A    between atoms: _112  and  _113
REMARK   50  A    between atoms: _116  and  _118
REMARK   51  A    between atoms: _118  and  _119
REMARK   52  A    between atoms: _118  and  _121
REMARK   53  A    between atoms: _124  and  _126
REMARK   54  A    between atoms: _126  and  _127
REMARK   55  A    between atoms: _126  and  _129
REMARK   56  A    between atoms: _129  and  _130
REMARK   57  A    between atoms: _130  and  _131
REMARK   58  A    between atoms: _131  and  _132
REMARK   59  A    between atoms: _141  and  _143
REMARK   60  A    between atoms: _143  and  _144
REMARK   61  A    between atoms: _143  and  _146
REMARK   62  A    between atoms: _146  and  _147
REMARK   63  A    between atoms: _152  and  _154
REMARK   64  A    between atoms: _154  and  _155
REMARK   65  A    between atoms: _154  and  _157
REMARK   66  A    between atoms: _157  and  _158
REMARK   67  A    between atoms: _158  and  _159
REMARK   68  A    between atoms: _162  and  _164
REMARK   69  A    between atoms: _164  and  _165
REMARK   70  A    between atoms: _164  and  _167
REMARK   71  A    between atoms: _167  and  _168
REMARK   72  A    between atoms: _168  and  _169
REMARK   73  A    between atoms: _169  and  _170
REMARK   74  A    between atoms: _170  and  _171
REMARK   75  A    between atoms: _175  and  _177
REMARK   76  A    between atoms: _177  and  _178
REMARK   77  A    between atoms: _180  and  _182
REMARK   78  A    between atoms: _182  and  _183
REMARK   79  A    between atoms: _182  and  _185
REMARK   80  A    between atoms: _188  and  _190
REMARK   81  A    between atoms: _190  and  _191
REMARK   82  A    between atoms: _190  and  _193
REMARK   83  A    between atoms: _193  and  _194
REMARK   84  A    between atoms: _196  and  _198
REMARK   85  A    between atoms: _198  and  _199
REMARK   86  A    between atoms: _198  and  _201
REMARK   87  A    between atoms: _201  and  _202
REMARK   88  A    between atoms: _204  and  _206
REMARK   89  A    between atoms: _206  and  _207
REMARK   90  A    between atoms: _206  and  _209
REMARK   91  A    between atoms: _209  and  _210
REMARK   92  A    between atoms: _216  and  _218
REMARK   93  A    between atoms: _218  and  _219
REMARK   94  A    between atoms: _218  and  _221
REMARK   95  A    between atoms: _221  and  _222
REMARK   96  A    between atoms: _225  and  _227
REMARK   97  A    between atoms: _227  and  _228
REMARK   98  A    between atoms: _227  and  _230
REMARK   99  A    between atoms: _230  and  _231
REMARK  100  A    between atoms: _234  and  _236
REMARK  101  A    between atoms: _236  and  _237
REMARK  102  A    between atoms: _236  and  _239
REMARK  103  A    between atoms: _239  and  _240
REMARK  104  A    between atoms: _243  and  _245
REMARK  105  A    between atoms: _245  and  _246
REMARK  106  A    between atoms: _245  and  _248
REMARK  107  A    between atoms: _248  and  _249
REMARK  108  A    between atoms: _249  and  _250
REMARK  109  A    between atoms: _252  and  _254
REMARK  110  A    between atoms: _254  and  _255
REMARK  111  A    between atoms: _254  and  _257
REMARK  112  A    between atoms: _257  and  _258
REMARK  113  A    between atoms: _264  and  _266
REMARK  114  A    between atoms: _266  and  _267
REMARK  115  A    between atoms: _266  and  _269
REMARK  116  A    between atoms: _271  and  _273
REMARK  117  A    between atoms: _273  and  _274
REMARK  118  A    between atoms: _277  and  _279
REMARK  119  A    between atoms: _279  and  _280
REMARK  120  A    between atoms: _282  and  _284
REMARK  121  A    between atoms: _284  and  _285
REMARK  122  A    between atoms: _284  and  _287
REMARK  123  A    between atoms: _287  and  _288
REMARK  124  A    between atoms: _288  and  _289
REMARK  125  A    between atoms: _292  and  _294
REMARK  126  A    between atoms: _294  and  _295
REMARK  127  A    between atoms: _294  and  _297
REMARK  128  A    between atoms: _297  and  _298
REMARK  129  A    between atoms: _301  and  _303
REMARK  130  A    between atoms: _303  and  _304
REMARK  131  A    between atoms: _307  and  _309
REMARK  132  A    between atoms: _309  and  _310
REMARK  133  A    between atoms: _309  and  _312
REMARK  134  A    between atoms: _312  and  _313
REMARK  135  A    between atoms: _313  and  _436
REMARK  136  A    between atoms: _314  and  _316
REMARK  137  A    between atoms: _316  and  _317
REMARK  138  A    between atoms: _316  and  _319
REMARK  139  A    between atoms: _319  and  _320
REMARK  140  A    between atoms: _320  and  _321
REMARK  141  A    between atoms: _326  and  _328
REMARK  142  A    between atoms: _328  and  _329
REMARK  143  A    between atoms: _331  and  _333
REMARK  144  A    between atoms: _333  and  _334
REMARK  145  A    between atoms: _333  and  _336
REMARK  146  A    between atoms: _336  and  _337
REMARK  147  A    between atoms: _340  and  _342
REMARK  148  A    between atoms: _342  and  _343
REMARK  149  A    between atoms: _342  and  _345
REMARK  150  A    between atoms: _345  and  _346
REMARK  151  A    between atoms: _348  and  _350
REMARK  152  A    between atoms: _350  and  _351
REMARK  153  A    between atoms: _353  and  _355
REMARK  154  A    between atoms: _355  and  _356
REMARK  155  A    between atoms: _358  and  _360
REMARK  156  A    between atoms: _360  and  _361
REMARK  157  A    between atoms: _360  and  _363
REMARK  158  A    between atoms: _363  and  _364
REMARK  159  A    between atoms: _369  and  _371
REMARK  160  A    between atoms: _371  and  _372
REMARK  161  A    between atoms: _371  and  _374
REMARK  162  A    between atoms: _374  and  _375
REMARK  163  A    between atoms: _378  and  _380
REMARK  164  A    between atoms: _380  and  _381
REMARK  165  A    between atoms: _380  and  _383
REMARK  166  A    between atoms: _386  and  _388
REMARK  167  A    between atoms: _388  and  _389
REMARK  168  A    between atoms: _388  and  _391
REMARK  169  A    between atoms: _391  and  _392
REMARK  170  A    between atoms: _394  and  _396
REMARK  171  A    between atoms: _396  and  _397
REMARK  172  A    between atoms: _396  and  _399
REMARK  173  A    between atoms: _399  and  _400
REMARK  174  A    between atoms: _410  and  _412
REMARK  175  A    between atoms: _412  and  _413
REMARK  176  A    between atoms: _415  and  _417
REMARK  177  A    between atoms: _417  and  _418
REMARK  178  A    between atoms: _417  and  _420
REMARK  179  A    between atoms: _420  and  _421
REMARK  180  A    between atoms: _421  and  _422
REMARK  181  A    between atoms: _425  and  _427
REMARK  182  A    between atoms: _427  and  _428
REMARK  183  A    between atoms: _430  and  _432
REMARK  184  A    between atoms: _432  and  _433
REMARK  185  A    between atoms: _432  and  _435
REMARK  186  A    between atoms: _435  and  _436
REMARK  187  A    between atoms: _437  and  _439
REMARK  188  A    between atoms: _439  and  _440
REMARK  189  A    between atoms: _443  and  _445
REMARK  190  A    between atoms: _445  and  _446
REMARK  191  A    between atoms: _445  and  _448
REMARK  192  A    between atoms: _448  and  _449
REMARK  193  A    between atoms: _449  and  _450
REMARK  194  A    between atoms: _450  and  _451
REMARK  195  A    between atoms: _460  and  _462
REMARK  196  A    between atoms: _462  and  _463
REMARK  197  A    between atoms: _462  and  _465
REMARK  198  A    between atoms: _465  and  _466
REMARK  199  A    between atoms: _466  and  _467
REMARK  200  A    between atoms: _467  and  _468
REMARK  201  A    between atoms: _468  and  _469
REMARK  202  A    between atoms: _473  and  _475
REMARK  203  A    between atoms: _475  and  _476
REMARK  204  A    between atoms: _475  and  _478
REMARK  205  A    between atoms: _478  and  _479
REMARK  206  A    between atoms: _484  and  _485
REMARK  207  A    between atoms: _487  and  _489
REMARK  208  A    between atoms: _489  and  _490
REMARK  209  A    between atoms: _492  and  _494
REMARK  210  A    between atoms: _494  and  _495
REMARK  211  A    between atoms: _494  and  _497
REMARK  212  A    between atoms: _497  and  _498
REMARK  213  A    between atoms: _501  and  _503
REMARK  214  A    between atoms: _503  and  _504
REMARK  215  A    between atoms: _503  and  _506
REMARK  216  A    between atoms: _506  and  _507
REMARK  217  A    between atoms: _512  and  _513
REMARK  218  A    between atoms: _515  and  _517
REMARK  219  A    between atoms: _517  and  _518
REMARK  220  A    between atoms: _517  and  _520
REMARK  221  A    between atoms: _520  and  _521
REMARK                            x       y       z     vdW  Elec       q    Type
REMARK                         _______ _______ _______ _____ _____    ______ ____
ROOT
ATOM      1  O   HOH     1      14.878  65.720   1.011  0.00  0.00    +0.000 OA
ENDROOT
TORSDOF 0
REMARK  Name = ../refined-set-2016/2vwo/2vwo_pocket.pdb
REMARK  221 active torsions:
REMARK  status: ('A' for Active; 'I' for Inactive)
REMARK    1  A    between atoms: _1  and  _5
REMARK    2  A    between atoms: _5  and  _6
REMARK    3  A    between atoms: _5  and  _8
REMARK    4  A    between atoms: _8  and  _9
REMARK    5  A    between atoms: _12  and  _14
REMARK    6  A    between atoms: _14  and  _15
REMARK    7  A    between atoms: _14  and  _17
REMARK    8  A    between atoms: _20  and  _22
REMARK    9  A    between atoms: _22  and  _23
REMARK   10  A    between atoms: _22  and  _25
REMARK   11  A    between atoms: _25  and  _26
REMARK   12  A    between atoms: _31  and  _33
REMARK   13  A    between atoms: _33  and  _34
REMARK   14  A    between atoms: _33  and  _36
REMARK   15  A    between atoms: _36  and  _37
REMARK   16  A    between atoms: _37  and  _38
REMARK   17  A    between atoms: _43  and  _45
REMARK   18  A    between atoms: _45  and  _46
REMARK   19  A    between atoms: _45  and  _48
REMARK   20  A    between atoms: _48  and  _49
REMARK   21  A    between atoms: _52  and  _54
REMARK   22  A    between atoms: _54  and  _55
REMARK   23  A    between atoms: _54  and  _57
REMARK   24  A    between atoms: _57  and  _58
REMARK   25  A    between atoms: _58  and  _59
REMARK   26  A    between atoms: _59  and  _60
REMARK   27  A    between atoms: _60  and  _61
REMARK   28  A    between atoms: _65  and  _67
REMARK   29  A    between atoms: _67  and  _68
REMARK   30  A    between atoms: _67  and  _70
REMARK   31  A    between atoms: _70  and  _71
REMARK   32  A    between atoms: _71  and  _72
REMARK   33  A    between atoms: _75  and  _77
REMARK   34  A    between atoms: _77  and  _78
REMARK   35  A    between atoms: _77  and  _80
REMARK   36  A    between atoms: _80  and  _81
REMARK   37  A    between atoms: _84  and  _86
REMARK   38  A    between atoms: _86  and  _87
REMARK   39  A    between atoms: _86  and  _89
REMARK   40  A    between atoms: _89  and  _90
REMARK   41  A    between atoms: _95  and  _96
REMARK   42  A    between atoms: _98  and  _100
REMARK   43  A    between atoms: _100  and  _101
REMARK   44  A    between atoms: _100  and  _103
REMARK   45  A    between atoms: _103  and  _104
REMARK   46  A    between atoms: _107  and  _109
REMARK   47  A    between atoms: _109  and  _110
REMARK   48  A    between atoms: _109  and  _112
REMARK   49  A    between atoms: _112  and  _113
REMARK   50  A    between atoms: _116  and  _118
REMARK   51  A    between atoms: _118  and  _119
REMARK   52  A    between atoms: _118  and  _121
REMARK   53  A    between atoms: _124  and  _126
REMARK   54  A    between atoms: _126  and  _127
REMARK   55  A    between atoms: _126  and  _129
REMARK   56  A    between atoms: _129  and  _130
REMARK   57  A    between atoms: _130  and  _131
REMARK   58  A    between atoms: _131  and  _132
REMARK   59  A    between atoms: _141  and  _143
REMARK   60  A    between atoms: _143  and  _144
REMARK   61  A    between atoms: _143  and  _146
REMARK   62  A    between atoms: _146  and  _147
REMARK   63  A    between atoms: _152  and  _154
REMARK   64  A    between atoms: _154  and  _155
REMARK   65  A    between atoms: _154  and  _157
REMARK   66  A    between atoms: _157  and  _158
REMARK   67  A    between atoms: _158  and  _159
REMARK   68  A    between atoms: _162  and  _164
REMARK   69  A    between atoms: _164  and  _165
REMARK   70  A    between atoms: _164  and  _167
REMARK   71  A    between atoms: _167  and  _168
REMARK   72  A    between atoms: _168  and  _169
REMARK   73  A    between atoms: _169  and  _170
REMARK   74  A    between atoms: _170  and  _171
REMARK   75  A    between atoms: _175  and  _177
REMARK   76  A    between atoms: _177  and  _178
REMARK   77  A    between atoms: _180  and  _182
REMARK   78  A    between atoms: _182  and  _183
REMARK   79  A    between atoms: _182  and  _185
REMARK   80  A    between atoms: _188  and  _190
REMARK   81  A    between atoms: _190  and  _191
REMARK   82  A    between atoms: _190  and  _193
REMARK   83  A    between atoms: _193  and  _194
REMARK   84  A    between atoms: _196  and  _198
REMARK   85  A    between atoms: _198  and  _199
REMARK   86  A    between atoms: _198  and  _201
REMARK   87  A    between atoms: _201  and  _202
REMARK   88  A    between atoms: _204  and  _206
REMARK   89  A    between atoms: _206  and  _207
REMARK   90  A    between atoms: _206  and  _209
REMARK   91  A    between atoms: _209  and  _210
REMARK   92  A    between atoms: _216  and  _218
REMARK   93  A    between atoms: _218  and  _219
REMARK   94  A    between atoms: _218  and  _221
REMARK   95  A    between atoms: _221  and  _222
REMARK   96  A    between atoms: _225  and  _227
REMARK   97  A    between atoms: _227  and  _228
REMARK   98  A    between atoms: _227  and  _230
REMARK   99  A    between atoms: _230  and  _231
REMARK  100  A    between atoms: _234  and  _236
REMARK  101  A    between atoms: _236  and  _237
REMARK  102  A    between atoms: _236  and  _239
REMARK  103  A    between atoms: _239  and  _240
REMARK  104  A    between atoms: _243  and  _245
REMARK  105  A    between atoms: _245  and  _246
REMARK  106  A    between atoms: _245  and  _248
REMARK  107  A    between atoms: _248  and  _249
REMARK  108  A    between atoms: _249  and  _250
REMARK  109  A    between atoms: _252  and  _254
REMARK  110  A    between atoms: _254  and  _255
REMARK  111  A    between atoms: _254  and  _257
REMARK  112  A    between atoms: _257  and  _258
REMARK  113  A    between atoms: _264  and  _266
REMARK  114  A    between atoms: _266  and  _267
REMARK  115  A    between atoms: _266  and  _269
REMARK  116  A    between atoms: _271  and  _273
REMARK  117  A    between atoms: _273  and  _274
REMARK  118  A    between atoms: _277  and  _279
REMARK  119  A    between atoms: _279  and  _280
REMARK  120  A    between atoms: _282  and  _284
REMARK  121  A    between atoms: _284  and  _285
REMARK  122  A    between atoms: _284  and  _287
REMARK  123  A    between atoms: _287  and  _288
REMARK  124  A    between atoms: _288  and  _289
REMARK  125  A    between atoms: _292  and  _294
REMARK  126  A    between atoms: _294  and  _295
REMARK  127  A    between atoms: _294  and  _297
REMARK  128  A    between atoms: _297  and  _298
REMARK  129  A    between atoms: _301  and  _303
REMARK  130  A    between atoms: _303  and  _304
REMARK  131  A    between atoms: _307  and  _309
REMARK  132  A    between atoms: _309  and  _310
REMARK  133  A    between atoms: _309  and  _312
REMARK  134  A    between atoms: _312  and  _313
REMARK  135  A    between atoms: _313  and  _436
REMARK  136  A    between atoms: _314  and  _316
REMARK  137  A    between atoms: _316  and  _317
REMARK  138  A    between atoms: _316  and  _319
REMARK  139  A    between atoms: _319  and  _320
REMARK  140  A    between atoms: _320  and  _321
REMARK  141  A    between atoms: _326  and  _328
REMARK  142  A    between atoms: _328  and  _329
REMARK  143  A    between atoms: _331  and  _333
REMARK  144  A    between atoms: _333  and  _334
REMARK  145  A    between atoms: _333  and  _336
REMARK  146  A    between atoms: _336  and  _337
REMARK  147  A    between atoms: _340  and  _342
REMARK  148  A    between atoms: _342  and  _343
REMARK  149  A    between atoms: _342  and  _345
REMARK  150  A    between atoms: _345  and  _346
REMARK  151  A    between atoms: _348  and  _350
REMARK  152  A    between atoms: _350  and  _351
REMARK  153  A    between atoms: _353  and  _355
REMARK  154  A    between atoms: _355  and  _356
REMARK  155  A    between atoms: _358  and  _360
REMARK  156  A    between atoms: _360  and  _361
REMARK  157  A    between atoms: _360  and  _363
REMARK  158  A    between atoms: _363  and  _364
REMARK  159  A    between atoms: _369  and  _371
REMARK  160  A    between atoms: _371  and  _372
REMARK  161  A    between atoms: _371  and  _374
REMARK  162  A    between atoms: _374  and  _375
REMARK  163  A    between atoms: _378  and  _380
REMARK  164  A    between atoms: _380  and  _381
REMARK  165  A    between atoms: _380  and  _383
REMARK  166  A    between atoms: _386  and  _388
REMARK  167  A    between atoms: _388  and  _389
REMARK  168  A    between atoms: _388  and  _391
REMARK  169  A    between atoms: _391  and  _392
REMARK  170  A    between atoms: _394  and  _396
REMARK  171  A    between atoms: _396  and  _397
REMARK  172  A    between atoms: _396  and  _399
REMARK  173  A    between atoms: _399  and  _400
REMARK  174  A    between atoms: _410  and  _412
REMARK  175  A    between atoms: _412  and  _413
REMARK  176  A    between atoms: _415  and  _417
REMARK  177  A    between atoms: _417  and  _418
REMARK  178  A    between atoms: _417  and  _420
REMARK  179  A    between atoms: _420  and  _421
REMARK  180  A    between atoms: _421  and  _422
REMARK  181  A    between atoms: _425  and  _427
REMARK  182  A    between atoms: _427  and  _428
REMARK  183  A    between atoms: _430  and  _432
REMARK  184  A    between atoms: _432  and  _433
REMARK  185  A    between atoms: _432  and  _435
REMARK  186  A    between atoms: _435  and  _436
REMARK  187  A    between atoms: _437  and  _439
REMARK  188  A    between atoms: _439  and  _440
REMARK  189  A    between atoms: _443  and  _445
REMARK  190  A    between atoms: _445  and  _446
REMARK  191  A    between atoms: _445  and  _448
REMARK  192  A    between atoms: _448  and  _449
REMARK  193  A    between atoms: _449  and  _450
REMARK  194  A    between atoms: _450  and  _451
REMARK  195  A    between atoms: _460  and  _462
REMARK  196  A    between atoms: _462  and  _463
REMARK  197  A    between atoms: _462  and  _465
REMARK  198  A    between atoms: _465  and  _466
REMARK  199  A    between atoms: _466  and  _467
REMARK  200  A    between atoms: _467  and  _468
REMARK  201  A    between atoms: _468  and  _469
REMARK  202  A    between atoms: _473  and  _475
REMARK  203  A    between atoms: _475  and  _476
REMARK  204  A    between atoms: _475  and  _478
REMARK  205  A    between atoms: _478  and  _479
REMARK  206  A    between atoms: _484  and  _485
REMARK  207  A    between atoms: _487  and  _489
REMARK  208  A    between atoms: _489  and  _490
REMARK  209  A    between atoms: _492  and  _494
REMARK  210  A    between atoms: _494  and  _495
REMARK  211  A    between atoms: _494  and  _497
REMARK  212  A    between atoms: _497  and  _498
REMARK  213  A    between atoms: _501  and  _503
REMARK  214  A    between atoms: _503  and  _504
REMARK  215  A    between atoms: _503  and  _506
REMARK  216  A    between atoms: _506  and  _507
REMARK  217  A    between atoms: _512  and  _513
REMARK  218  A    between atoms: _515  and  _517
REMARK  219  A    between atoms: _517  and  _518
REMARK  220  A    between atoms: _517  and  _520
REMARK  221  A    between atoms: _520  and  _521
REMARK                            x       y       z     vdW  Elec       q    Type
REMARK                         _______ _______ _______ _____ _____    ______ ____
ROOT
ATOM      1  O   HOH     1      12.303  62.807   1.585  0.00  0.00    +0.000 OA
ENDROOT
TORSDOF 0
REMARK  Name = ../refined-set-2016/2vwo/2vwo_pocket.pdb
REMARK  221 active torsions:
REMARK  status: ('A' for Active; 'I' for Inactive)
REMARK    1  A    between atoms: _1  and  _5
REMARK    2  A    between atoms: _5  and  _6
REMARK    3  A    between atoms: _5  and  _8
REMARK    4  A    between atoms: _8  and  _9
REMARK    5  A    between atoms: _12  and  _14
REMARK    6  A    between atoms: _14  and  _15
REMARK    7  A    between atoms: _14  and  _17
REMARK    8  A    between atoms: _20  and  _22
REMARK    9  A    between atoms: _22  and  _23
REMARK   10  A    between atoms: _22  and  _25
REMARK   11  A    between atoms: _25  and  _26
REMARK   12  A    between atoms: _31  and  _33
REMARK   13  A    between atoms: _33  and  _34
REMARK   14  A    between atoms: _33  and  _36
REMARK   15  A    between atoms: _36  and  _37
REMARK   16  A    between atoms: _37  and  _38
REMARK   17  A    between atoms: _43  and  _45
REMARK   18  A    between atoms: _45  and  _46
REMARK   19  A    between atoms: _45  and  _48
REMARK   20  A    between atoms: _48  and  _49
REMARK   21  A    between atoms: _52  and  _54
REMARK   22  A    between atoms: _54  and  _55
REMARK   23  A    between atoms: _54  and  _57
REMARK   24  A    between atoms: _57  and  _58
REMARK   25  A    between atoms: _58  and  _59
REMARK   26  A    between atoms: _59  and  _60
REMARK   27  A    between atoms: _60  and  _61
REMARK   28  A    between atoms: _65  and  _67
REMARK   29  A    between atoms: _67  and  _68
REMARK   30  A    between atoms: _67  and  _70
REMARK   31  A    between atoms: _70  and  _71
REMARK   32  A    between atoms: _71  and  _72
REMARK   33  A    between atoms: _75  and  _77
REMARK   34  A    between atoms: _77  and  _78
REMARK   35  A    between atoms: _77  and  _80
REMARK   36  A    between atoms: _80  and  _81
REMARK   37  A    between atoms: _84  and  _86
REMARK   38  A    between atoms: _86  and  _87
REMARK   39  A    between atoms: _86  and  _89
REMARK   40  A    between atoms: _89  and  _90
REMARK   41  A    between atoms: _95  and  _96
REMARK   42  A    between atoms: _98  and  _100
REMARK   43  A    between atoms: _100  and  _101
REMARK   44  A    between atoms: _100  and  _103
REMARK   45  A    between atoms: _103  and  _104
REMARK   46  A    between atoms: _107  and  _109
REMARK   47  A    between atoms: _109  and  _110
REMARK   48  A    between atoms: _109  and  _112
REMARK   49  A    between atoms: _112  and  _113
REMARK   50  A    between atoms: _116  and  _118
REMARK   51  A    between atoms: _118  and  _119
REMARK   52  A    between atoms: _118  and  _121
REMARK   53  A    between atoms: _124  and  _126
REMARK   54  A    between atoms: _126  and  _127
REMARK   55  A    between atoms: _126  and  _129
REMARK   56  A    between atoms: _129  and  _130
REMARK   57  A    between atoms: _130  and  _131
REMARK   58  A    between atoms: _131  and  _132
REMARK   59  A    between atoms: _141  and  _143
REMARK   60  A    between atoms: _143  and  _144
REMARK   61  A    between atoms: _143  and  _146
REMARK   62  A    between atoms: _146  and  _147
REMARK   63  A    between atoms: _152  and  _154
REMARK   64  A    between atoms: _154  and  _155
REMARK   65  A    between atoms: _154  and  _157
REMARK   66  A    between atoms: _157  and  _158
REMARK   67  A    between atoms: _158  and  _159
REMARK   68  A    between atoms: _162  and  _164
REMARK   69  A    between atoms: _164  and  _165
REMARK   70  A    between atoms: _164  and  _167
REMARK   71  A    between atoms: _167  and  _168
REMARK   72  A    between atoms: _168  and  _169
REMARK   73  A    between atoms: _169  and  _170
REMARK   74  A    between atoms: _170  and  _171
REMARK   75  A    between atoms: _175  and  _177
REMARK   76  A    between atoms: _177  and  _178
REMARK   77  A    between atoms: _180  and  _182
REMARK   78  A    between atoms: _182  and  _183
REMARK   79  A    between atoms: _182  and  _185
REMARK   80  A    between atoms: _188  and  _190
REMARK   81  A    between atoms: _190  and  _191
REMARK   82  A    between atoms: _190  and  _193
REMARK   83  A    between atoms: _193  and  _194
REMARK   84  A    between atoms: _196  and  _198
REMARK   85  A    between atoms: _198  and  _199
REMARK   86  A    between atoms: _198  and  _201
REMARK   87  A    between atoms: _201  and  _202
REMARK   88  A    between atoms: _204  and  _206
REMARK   89  A    between atoms: _206  and  _207
REMARK   90  A    between atoms: _206  and  _209
REMARK   91  A    between atoms: _209  and  _210
REMARK   92  A    between atoms: _216  and  _218
REMARK   93  A    between atoms: _218  and  _219
REMARK   94  A    between atoms: _218  and  _221
REMARK   95  A    between atoms: _221  and  _222
REMARK   96  A    between atoms: _225  and  _227
REMARK   97  A    between atoms: _227  and  _228
REMARK   98  A    between atoms: _227  and  _230
REMARK   99  A    between atoms: _230  and  _231
REMARK  100  A    between atoms: _234  and  _236
REMARK  101  A    between atoms: _236  and  _237
REMARK  102  A    between atoms: _236  and  _239
REMARK  103  A    between atoms: _239  and  _240
REMARK  104  A    between atoms: _243  and  _245
REMARK  105  A    between atoms: _245  and  _246
REMARK  106  A    between atoms: _245  and  _248
REMARK  107  A    between atoms: _248  and  _249
REMARK  108  A    between atoms: _249  and  _250
REMARK  109  A    between atoms: _252  and  _254
REMARK  110  A    between atoms: _254  and  _255
REMARK  111  A    between atoms: _254  and  _257
REMARK  112  A    between atoms: _257  and  _258
REMARK  113  A    between atoms: _264  and  _266
REMARK  114  A    between atoms: _266  and  _267
REMARK  115  A    between atoms: _266  and  _269
REMARK  116  A    between atoms: _271  and  _273
REMARK  117  A    between atoms: _273  and  _274
REMARK  118  A    between atoms: _277  and  _279
REMARK  119  A    between atoms: _279  and  _280
REMARK  120  A    between atoms: _282  and  _284
REMARK  121  A    between atoms: _284  and  _285
REMARK  122  A    between atoms: _284  and  _287
REMARK  123  A    between atoms: _287  and  _288
REMARK  124  A    between atoms: _288  and  _289
REMARK  125  A    between atoms: _292  and  _294
REMARK  126  A    between atoms: _294  and  _295
REMARK  127  A    between atoms: _294  and  _297
REMARK  128  A    between atoms: _297  and  _298
REMARK  129  A    between atoms: _301  and  _303
REMARK  130  A    between atoms: _303  and  _304
REMARK  131  A    between atoms: _307  and  _309
REMARK  132  A    between atoms: _309  and  _310
REMARK  133  A    between atoms: _309  and  _312
REMARK  134  A    between atoms: _312  and  _313
REMARK  135  A    between atoms: _313  and  _436
REMARK  136  A    between atoms: _314  and  _316
REMARK  137  A    between atoms: _316  and  _317
REMARK  138  A    between atoms: _316  and  _319
REMARK  139  A    between atoms: _319  and  _320
REMARK  140  A    between atoms: _320  and  _321
REMARK  141  A    between atoms: _326  and  _328
REMARK  142  A    between atoms: _328  and  _329
REMARK  143  A    between atoms: _331  and  _333
REMARK  144  A    between atoms: _333  and  _334
REMARK  145  A    between atoms: _333  and  _336
REMARK  146  A    between atoms: _336  and  _337
REMARK  147  A    between atoms: _340  and  _342
REMARK  148  A    between atoms: _342  and  _343
REMARK  149  A    between atoms: _342  and  _345
REMARK  150  A    between atoms: _345  and  _346
REMARK  151  A    between atoms: _348  and  _350
REMARK  152  A    between atoms: _350  and  _351
REMARK  153  A    between atoms: _353  and  _355
REMARK  154  A    between atoms: _355  and  _356
REMARK  155  A    between atoms: _358  and  _360
REMARK  156  A    between atoms: _360  and  _361
REMARK  157  A    between atoms: _360  and  _363
REMARK  158  A    between atoms: _363  and  _364
REMARK  159  A    between atoms: _369  and  _371
REMARK  160  A    between atoms: _371  and  _372
REMARK  161  A    between atoms: _371  and  _374
REMARK  162  A    between atoms: _374  and  _375
REMARK  163  A    between atoms: _378  and  _380
REMARK  164  A    between atoms: _380  and  _381
REMARK  165  A    between atoms: _380  and  _383
REMARK  166  A    between atoms: _386  and  _388
REMARK  167  A    between atoms: _388  and  _389
REMARK  168  A    between atoms: _388  and  _391
REMARK  169  A    between atoms: _391  and  _392
REMARK  170  A    between atoms: _394  and  _396
REMARK  171  A    between atoms: _396  and  _397
REMARK  172  A    between atoms: _396  and  _399
REMARK  173  A    between atoms: _399  and  _400
REMARK  174  A    between atoms: _410  and  _412
REMARK  175  A    between atoms: _412  and  _413
REMARK  176  A    between atoms: _415  and  _417
REMARK  177  A    between atoms: _417  and  _418
REMARK  178  A    between atoms: _417  and  _420
REMARK  179  A    between atoms: _420  and  _421
REMARK  180  A    between atoms: _421  and  _422
REMARK  181  A    between atoms: _425  and  _427
REMARK  182  A    between atoms: _427  and  _428
REMARK  183  A    between atoms: _430  and  _432
REMARK  184  A    between atoms: _432  and  _433
REMARK  185  A    between atoms: _432  and  _435
REMARK  186  A    between atoms: _435  and  _436
REMARK  187  A    between atoms: _437  and  _439
REMARK  188  A    between atoms: _439  and  _440
REMARK  189  A    between atoms: _443  and  _445
REMARK  190  A    between atoms: _445  and  _446
REMARK  191  A    between atoms: _445  and  _448
REMARK  192  A    between atoms: _448  and  _449
REMARK  193  A    between atoms: _449  and  _450
REMARK  194  A    between atoms: _450  and  _451
REMARK  195  A    between atoms: _460  and  _462
REMARK  196  A    between atoms: _462  and  _463
REMARK  197  A    between atoms: _462  and  _465
REMARK  198  A    between atoms: _465  and  _466
REMARK  199  A    between atoms: _466  and  _467
REMARK  200  A    between atoms: _467  and  _468
REMARK  201  A    between atoms: _468  and  _469
REMARK  202  A    between atoms: _473  and  _475
REMARK  203  A    between atoms: _475  and  _476
REMARK  204  A    between atoms: _475  and  _478
REMARK  205  A    between atoms: _478  and  _479
REMARK  206  A    between atoms: _484  and  _485
REMARK  207  A    between atoms: _487  and  _489
REMARK  208  A    between atoms: _489  and  _490
REMARK  209  A    between atoms: _492  and  _494
REMARK  210  A    between atoms: _494  and  _495
REMARK  211  A    between atoms: _494  and  _497
REMARK  212  A    between atoms: _497  and  _498
REMARK  213  A    between atoms: _501  and  _503
REMARK  214  A    between atoms: _503  and  _504
REMARK  215  A    between atoms: _503  and  _506
REMARK  216  A    between atoms: _506  and  _507
REMARK  217  A    between atoms: _512  and  _513
REMARK  218  A    between atoms: _515  and  _517
REMARK  219  A    between atoms: _517  and  _518
REMARK  220  A    between atoms: _517  and  _520
REMARK  221  A    between atoms: _520  and  _521
REMARK                            x       y       z     vdW  Elec       q    Type
REMARK                         _______ _______ _______ _____ _____    ______ ____
ROOT
ATOM      1  O   HOH     1       8.283  59.533  11.050  0.00  0.00    +0.000 OA
ENDROOT
TORSDOF 0
REMARK  Name = ../refined-set-2016/2vwo/2vwo_pocket.pdb
REMARK  221 active torsions:
REMARK  status: ('A' for Active; 'I' for Inactive)
REMARK    1  A    between atoms: _1  and  _5
REMARK    2  A    between atoms: _5  and  _6
REMARK    3  A    between atoms: _5  and  _8
REMARK    4  A    between atoms: _8  and  _9
REMARK    5  A    between atoms: _12  and  _14
REMARK    6  A    between atoms: _14  and  _15
REMARK    7  A    between atoms: _14  and  _17
REMARK    8  A    between atoms: _20  and  _22
REMARK    9  A    between atoms: _22  and  _23
REMARK   10  A    between atoms: _22  and  _25
REMARK   11  A    between atoms: _25  and  _26
REMARK   12  A    between atoms: _31  and  _33
REMARK   13  A    between atoms: _33  and  _34
REMARK   14  A    between atoms: _33  and  _36
REMARK   15  A    between atoms: _36  and  _37
REMARK   16  A    between atoms: _37  and  _38
REMARK   17  A    between atoms: _43  and  _45
REMARK   18  A    between atoms: _45  and  _46
REMARK   19  A    between atoms: _45  and  _48
REMARK   20  A    between atoms: _48  and  _49
REMARK   21  A    between atoms: _52  and  _54
REMARK   22  A    between atoms: _54  and  _55
REMARK   23  A    between atoms: _54  and  _57
REMARK   24  A    between atoms: _57  and  _58
REMARK   25  A    between atoms: _58  and  _59
REMARK   26  A    between atoms: _59  and  _60
REMARK   27  A    between atoms: _60  and  _61
REMARK   28  A    between atoms: _65  and  _67
REMARK   29  A    between atoms: _67  and  _68
REMARK   30  A    between atoms: _67  and  _70
REMARK   31  A    between atoms: _70  and  _71
REMARK   32  A    between atoms: _71  and  _72
REMARK   33  A    between atoms: _75  and  _77
REMARK   34  A    between atoms: _77  and  _78
REMARK   35  A    between atoms: _77  and  _80
REMARK   36  A    between atoms: _80  and  _81
REMARK   37  A    between atoms: _84  and  _86
REMARK   38  A    between atoms: _86  and  _87
REMARK   39  A    between atoms: _86  and  _89
REMARK   40  A    between atoms: _89  and  _90
REMARK   41  A    between atoms: _95  and  _96
REMARK   42  A    between atoms: _98  and  _100
REMARK   43  A    between atoms: _100  and  _101
REMARK   44  A    between atoms: _100  and  _103
REMARK   45  A    between atoms: _103  and  _104
REMARK   46  A    between atoms: _107  and  _109
REMARK   47  A    between atoms: _109  and  _110
REMARK   48  A    between atoms: _109  and  _112
REMARK   49  A    between atoms: _112  and  _113
REMARK   50  A    between atoms: _116  and  _118
REMARK   51  A    between atoms: _118  and  _119
REMARK   52  A    between atoms: _118  and  _121
REMARK   53  A    between atoms: _124  and  _126
REMARK   54  A    between atoms: _126  and  _127
REMARK   55  A    between atoms: _126  and  _129
REMARK   56  A    between atoms: _129  and  _130
REMARK   57  A    between atoms: _130  and  _131
REMARK   58  A    between atoms: _131  and  _132
REMARK   59  A    between atoms: _141  and  _143
REMARK   60  A    between atoms: _143  and  _144
REMARK   61  A    between atoms: _143  and  _146
REMARK   62  A    between atoms: _146  and  _147
REMARK   63  A    between atoms: _152  and  _154
REMARK   64  A    between atoms: _154  and  _155
REMARK   65  A    between atoms: _154  and  _157
REMARK   66  A    between atoms: _157  and  _158
REMARK   67  A    between atoms: _158  and  _159
REMARK   68  A    between atoms: _162  and  _164
REMARK   69  A    between atoms: _164  and  _165
REMARK   70  A    between atoms: _164  and  _167
REMARK   71  A    between atoms: _167  and  _168
REMARK   72  A    between atoms: _168  and  _169
REMARK   73  A    between atoms: _169  and  _170
REMARK   74  A    between atoms: _170  and  _171
REMARK   75  A    between atoms: _175  and  _177
REMARK   76  A    between atoms: _177  and  _178
REMARK   77  A    between atoms: _180  and  _182
REMARK   78  A    between atoms: _182  and  _183
REMARK   79  A    between atoms: _182  and  _185
REMARK   80  A    between atoms: _188  and  _190
REMARK   81  A    between atoms: _190  and  _191
REMARK   82  A    between atoms: _190  and  _193
REMARK   83  A    between atoms: _193  and  _194
REMARK   84  A    between atoms: _196  and  _198
REMARK   85  A    between atoms: _198  and  _199
REMARK   86  A    between atoms: _198  and  _201
REMARK   87  A    between atoms: _201  and  _202
REMARK   88  A    between atoms: _204  and  _206
REMARK   89  A    between atoms: _206  and  _207
REMARK   90  A    between atoms: _206  and  _209
REMARK   91  A    between atoms: _209  and  _210
REMARK   92  A    between atoms: _216  and  _218
REMARK   93  A    between atoms: _218  and  _219
REMARK   94  A    between atoms: _218  and  _221
REMARK   95  A    between atoms: _221  and  _222
REMARK   96  A    between atoms: _225  and  _227
REMARK   97  A    between atoms: _227  and  _228
REMARK   98  A    between atoms: _227  and  _230
REMARK   99  A    between atoms: _230  and  _231
REMARK  100  A    between atoms: _234  and  _236
REMARK  101  A    between atoms: _236  and  _237
REMARK  102  A    between atoms: _236  and  _239
REMARK  103  A    between atoms: _239  and  _240
REMARK  104  A    between atoms: _243  and  _245
REMARK  105  A    between atoms: _245  and  _246
REMARK  106  A    between atoms: _245  and  _248
REMARK  107  A    between atoms: _248  and  _249
REMARK  108  A    between atoms: _249  and  _250
REMARK  109  A    between atoms: _252  and  _254
REMARK  110  A    between atoms: _254  and  _255
REMARK  111  A    between atoms: _254  and  _257
REMARK  112  A    between atoms: _257  and  _258
REMARK  113  A    between atoms: _264  and  _266
REMARK  114  A    between atoms: _266  and  _267
REMARK  115  A    between atoms: _266  and  _269
REMARK  116  A    between atoms: _271  and  _273
REMARK  117  A    between atoms: _273  and  _274
REMARK  118  A    between atoms: _277  and  _279
REMARK  119  A    between atoms: _279  and  _280
REMARK  120  A    between atoms: _282  and  _284
REMARK  121  A    between atoms: _284  and  _285
REMARK  122  A    between atoms: _284  and  _287
REMARK  123  A    between atoms: _287  and  _288
REMARK  124  A    between atoms: _288  and  _289
REMARK  125  A    between atoms: _292  and  _294
REMARK  126  A    between atoms: _294  and  _295
REMARK  127  A    between atoms: _294  and  _297
REMARK  128  A    between atoms: _297  and  _298
REMARK  129  A    between atoms: _301  and  _303
REMARK  130  A    between atoms: _303  and  _304
REMARK  131  A    between atoms: _307  and  _309
REMARK  132  A    between atoms: _309  and  _310
REMARK  133  A    between atoms: _309  and  _312
REMARK  134  A    between atoms: _312  and  _313
REMARK  135  A    between atoms: _313  and  _436
REMARK  136  A    between atoms: _314  and  _316
REMARK  137  A    between atoms: _316  and  _317
REMARK  138  A    between atoms: _316  and  _319
REMARK  139  A    between atoms: _319  and  _320
REMARK  140  A    between atoms: _320  and  _321
REMARK  141  A    between atoms: _326  and  _328
REMARK  142  A    between atoms: _328  and  _329
REMARK  143  A    between atoms: _331  and  _333
REMARK  144  A    between atoms: _333  and  _334
REMARK  145  A    between atoms: _333  and  _336
REMARK  146  A    between atoms: _336  and  _337
REMARK  147  A    between atoms: _340  and  _342
REMARK  148  A    between atoms: _342  and  _343
REMARK  149  A    between atoms: _342  and  _345
REMARK  150  A    between atoms: _345  and  _346
REMARK  151  A    between atoms: _348  and  _350
REMARK  152  A    between atoms: _350  and  _351
REMARK  153  A    between atoms: _353  and  _355
REMARK  154  A    between atoms: _355  and  _356
REMARK  155  A    between atoms: _358  and  _360
REMARK  156  A    between atoms: _360  and  _361
REMARK  157  A    between atoms: _360  and  _363
REMARK  158  A    between atoms: _363  and  _364
REMARK  159  A    between atoms: _369  and  _371
REMARK  160  A    between atoms: _371  and  _372
REMARK  161  A    between atoms: _371  and  _374
REMARK  162  A    between atoms: _374  and  _375
REMARK  163  A    between atoms: _378  and  _380
REMARK  164  A    between atoms: _380  and  _381
REMARK  165  A    between atoms: _380  and  _383
REMARK  166  A    between atoms: _386  and  _388
REMARK  167  A    between atoms: _388  and  _389
REMARK  168  A    between atoms: _388  and  _391
REMARK  169  A    between atoms: _391  and  _392
REMARK  170  A    between atoms: _394  and  _396
REMARK  171  A    between atoms: _396  and  _397
REMARK  172  A    between atoms: _396  and  _399
REMARK  173  A    between atoms: _399  and  _400
REMARK  174  A    between atoms: _410  and  _412
REMARK  175  A    between atoms: _412  and  _413
REMARK  176  A    between atoms: _415  and  _417
REMARK  177  A    between atoms: _417  and  _418
REMARK  178  A    between atoms: _417  and  _420
REMARK  179  A    between atoms: _420  and  _421
REMARK  180  A    between atoms: _421  and  _422
REMARK  181  A    between atoms: _425  and  _427
REMARK  182  A    between atoms: _427  and  _428
REMARK  183  A    between atoms: _430  and  _432
REMARK  184  A    between atoms: _432  and  _433
REMARK  185  A    between atoms: _432  and  _435
REMARK  186  A    between atoms: _435  and  _436
REMARK  187  A    between atoms: _437  and  _439
REMARK  188  A    between atoms: _439  and  _440
REMARK  189  A    between atoms: _443  and  _445
REMARK  190  A    between atoms: _445  and  _446
REMARK  191  A    between atoms: _445  and  _448
REMARK  192  A    between atoms: _448  and  _449
REMARK  193  A    between atoms: _449  and  _450
REMARK  194  A    between atoms: _450  and  _451
REMARK  195  A    between atoms: _460  and  _462
REMARK  196  A    between atoms: _462  and  _463
REMARK  197  A    between atoms: _462  and  _465
REMARK  198  A    between atoms: _465  and  _466
REMARK  199  A    between atoms: _466  and  _467
REMARK  200  A    between atoms: _467  and  _468
REMARK  201  A    between atoms: _468  and  _469
REMARK  202  A    between atoms: _473  and  _475
REMARK  203  A    between atoms: _475  and  _476
REMARK  204  A    between atoms: _475  and  _478
REMARK  205  A    between atoms: _478  and  _479
REMARK  206  A    between atoms: _484  and  _485
REMARK  207  A    between atoms: _487  and  _489
REMARK  208  A    between atoms: _489  and  _490
REMARK  209  A    between atoms: _492  and  _494
REMARK  210  A    between atoms: _494  and  _495
REMARK  211  A    between atoms: _494  and  _497
REMARK  212  A    between atoms: _497  and  _498
REMARK  213  A    between atoms: _501  and  _503
REMARK  214  A    between atoms: _503  and  _504
REMARK  215  A    between atoms: _503  and  _506
REMARK  216  A    between atoms: _506  and  _507
REMARK  217  A    between atoms: _512  and  _513
REMARK  218  A    between atoms: _515  and  _517
REMARK  219  A    between atoms: _517  and  _518
REMARK  220  A    between atoms: _517  and  _520
REMARK  221  A    between atoms: _520  and  _521
REMARK                            x       y       z     vdW  Elec       q    Type
REMARK                         _______ _______ _______ _____ _____    ______ ____
ROOT
ATOM      1  O   HOH     1      10.604  66.338  11.262  0.00  0.00    +0.000 OA
ENDROOT
TORSDOF 0
REMARK  Name = ../refined-set-2016/2vwo/2vwo_pocket.pdb
REMARK  221 active torsions:
REMARK  status: ('A' for Active; 'I' for Inactive)
REMARK    1  A    between atoms: _1  and  _5
REMARK    2  A    between atoms: _5  and  _6
REMARK    3  A    between atoms: _5  and  _8
REMARK    4  A    between atoms: _8  and  _9
REMARK    5  A    between atoms: _12  and  _14
REMARK    6  A    between atoms: _14  and  _15
REMARK    7  A    between atoms: _14  and  _17
REMARK    8  A    between atoms: _20  and  _22
REMARK    9  A    between atoms: _22  and  _23
REMARK   10  A    between atoms: _22  and  _25
REMARK   11  A    between atoms: _25  and  _26
REMARK   12  A    between atoms: _31  and  _33
REMARK   13  A    between atoms: _33  and  _34
REMARK   14  A    between atoms: _33  and  _36
REMARK   15  A    between atoms: _36  and  _37
REMARK   16  A    between atoms: _37  and  _38
REMARK   17  A    between atoms: _43  and  _45
REMARK   18  A    between atoms: _45  and  _46
REMARK   19  A    between atoms: _45  and  _48
REMARK   20  A    between atoms: _48  and  _49
REMARK   21  A    between atoms: _52  and  _54
REMARK   22  A    between atoms: _54  and  _55
REMARK   23  A    between atoms: _54  and  _57
REMARK   24  A    between atoms: _57  and  _58
REMARK   25  A    between atoms: _58  and  _59
REMARK   26  A    between atoms: _59  and  _60
REMARK   27  A    between atoms: _60  and  _61
REMARK   28  A    between atoms: _65  and  _67
REMARK   29  A    between atoms: _67  and  _68
REMARK   30  A    between atoms: _67  and  _70
REMARK   31  A    between atoms: _70  and  _71
REMARK   32  A    between atoms: _71  and  _72
REMARK   33  A    between atoms: _75  and  _77
REMARK   34  A    between atoms: _77  and  _78
REMARK   35  A    between atoms: _77  and  _80
REMARK   36  A    between atoms: _80  and  _81
REMARK   37  A    between atoms: _84  and  _86
REMARK   38  A    between atoms: _86  and  _87
REMARK   39  A    between atoms: _86  and  _89
REMARK   40  A    between atoms: _89  and  _90
REMARK   41  A    between atoms: _95  and  _96
REMARK   42  A    between atoms: _98  and  _100
REMARK   43  A    between atoms: _100  and  _101
REMARK   44  A    between atoms: _100  and  _103
REMARK   45  A    between atoms: _103  and  _104
REMARK   46  A    between atoms: _107  and  _109
REMARK   47  A    between atoms: _109  and  _110
REMARK   48  A    between atoms: _109  and  _112
REMARK   49  A    between atoms: _112  and  _113
REMARK   50  A    between atoms: _116  and  _118
REMARK   51  A    between atoms: _118  and  _119
REMARK   52  A    between atoms: _118  and  _121
REMARK   53  A    between atoms: _124  and  _126
REMARK   54  A    between atoms: _126  and  _127
REMARK   55  A    between atoms: _126  and  _129
REMARK   56  A    between atoms: _129  and  _130
REMARK   57  A    between atoms: _130  and  _131
REMARK   58  A    between atoms: _131  and  _132
REMARK   59  A    between atoms: _141  and  _143
REMARK   60  A    between atoms: _143  and  _144
REMARK   61  A    between atoms: _143  and  _146
REMARK   62  A    between atoms: _146  and  _147
REMARK   63  A    between atoms: _152  and  _154
REMARK   64  A    between atoms: _154  and  _155
REMARK   65  A    between atoms: _154  and  _157
REMARK   66  A    between atoms: _157  and  _158
REMARK   67  A    between atoms: _158  and  _159
REMARK   68  A    between atoms: _162  and  _164
REMARK   69  A    between atoms: _164  and  _165
REMARK   70  A    between atoms: _164  and  _167
REMARK   71  A    between atoms: _167  and  _168
REMARK   72  A    between atoms: _168  and  _169
REMARK   73  A    between atoms: _169  and  _170
REMARK   74  A    between atoms: _170  and  _171
REMARK   75  A    between atoms: _175  and  _177
REMARK   76  A    between atoms: _177  and  _178
REMARK   77  A    between atoms: _180  and  _182
REMARK   78  A    between atoms: _182  and  _183
REMARK   79  A    between atoms: _182  and  _185
REMARK   80  A    between atoms: _188  and  _190
REMARK   81  A    between atoms: _190  and  _191
REMARK   82  A    between atoms: _190  and  _193
REMARK   83  A    between atoms: _193  and  _194
REMARK   84  A    between atoms: _196  and  _198
REMARK   85  A    between atoms: _198  and  _199
REMARK   86  A    between atoms: _198  and  _201
REMARK   87  A    between atoms: _201  and  _202
REMARK   88  A    between atoms: _204  and  _206
REMARK   89  A    between atoms: _206  and  _207
REMARK   90  A    between atoms: _206  and  _209
REMARK   91  A    between atoms: _209  and  _210
REMARK   92  A    between atoms: _216  and  _218
REMARK   93  A    between atoms: _218  and  _219
REMARK   94  A    between atoms: _218  and  _221
REMARK   95  A    between atoms: _221  and  _222
REMARK   96  A    between atoms: _225  and  _227
REMARK   97  A    between atoms: _227  and  _228
REMARK   98  A    between atoms: _227  and  _230
REMARK   99  A    between atoms: _230  and  _231
REMARK  100  A    between atoms: _234  and  _236
REMARK  101  A    between atoms: _236  and  _237
REMARK  102  A    between atoms: _236  and  _239
REMARK  103  A    between atoms: _239  and  _240
REMARK  104  A    between atoms: _243  and  _245
REMARK  105  A    between atoms: _245  and  _246
REMARK  106  A    between atoms: _245  and  _248
REMARK  107  A    between atoms: _248  and  _249
REMARK  108  A    between atoms: _249  and  _250
REMARK  109  A    between atoms: _252  and  _254
REMARK  110  A    between atoms: _254  and  _255
REMARK  111  A    between atoms: _254  and  _257
REMARK  112  A    between atoms: _257  and  _258
REMARK  113  A    between atoms: _264  and  _266
REMARK  114  A    between atoms: _266  and  _267
REMARK  115  A    between atoms: _266  and  _269
REMARK  116  A    between atoms: _271  and  _273
REMARK  117  A    between atoms: _273  and  _274
REMARK  118  A    between atoms: _277  and  _279
REMARK  119  A    between atoms: _279  and  _280
REMARK  120  A    between atoms: _282  and  _284
REMARK  121  A    between atoms: _284  and  _285
REMARK  122  A    between atoms: _284  and  _287
REMARK  123  A    between atoms: _287  and  _288
REMARK  124  A    between atoms: _288  and  _289
REMARK  125  A    between atoms: _292  and  _294
REMARK  126  A    between atoms: _294  and  _295
REMARK  127  A    between atoms: _294  and  _297
REMARK  128  A    between atoms: _297  and  _298
REMARK  129  A    between atoms: _301  and  _303
REMARK  130  A    between atoms: _303  and  _304
REMARK  131  A    between atoms: _307  and  _309
REMARK  132  A    between atoms: _309  and  _310
REMARK  133  A    between atoms: _309  and  _312
REMARK  134  A    between atoms: _312  and  _313
REMARK  135  A    between atoms: _313  and  _436
REMARK  136  A    between atoms: _314  and  _316
REMARK  137  A    between atoms: _316  and  _317
REMARK  138  A    between atoms: _316  and  _319
REMARK  139  A    between atoms: _319  and  _320
REMARK  140  A    between atoms: _320  and  _321
REMARK  141  A    between atoms: _326  and  _328
REMARK  142  A    between atoms: _328  and  _329
REMARK  143  A    between atoms: _331  and  _333
REMARK  144  A    between atoms: _333  and  _334
REMARK  145  A    between atoms: _333  and  _336
REMARK  146  A    between atoms: _336  and  _337
REMARK  147  A    between atoms: _340  and  _342
REMARK  148  A    between atoms: _342  and  _343
REMARK  149  A    between atoms: _342  and  _345
REMARK  150  A    between atoms: _345  and  _346
REMARK  151  A    between atoms: _348  and  _350
REMARK  152  A    between atoms: _350  and  _351
REMARK  153  A    between atoms: _353  and  _355
REMARK  154  A    between atoms: _355  and  _356
REMARK  155  A    between atoms: _358  and  _360
REMARK  156  A    between atoms: _360  and  _361
REMARK  157  A    between atoms: _360  and  _363
REMARK  158  A    between atoms: _363  and  _364
REMARK  159  A    between atoms: _369  and  _371
REMARK  160  A    between atoms: _371  and  _372
REMARK  161  A    between atoms: _371  and  _374
REMARK  162  A    between atoms: _374  and  _375
REMARK  163  A    between atoms: _378  and  _380
REMARK  164  A    between atoms: _380  and  _381
REMARK  165  A    between atoms: _380  and  _383
REMARK  166  A    between atoms: _386  and  _388
REMARK  167  A    between atoms: _388  and  _389
REMARK  168  A    between atoms: _388  and  _391
REMARK  169  A    between atoms: _391  and  _392
REMARK  170  A    between atoms: _394  and  _396
REMARK  171  A    between atoms: _396  and  _397
REMARK  172  A    between atoms: _396  and  _399
REMARK  173  A    between atoms: _399  and  _400
REMARK  174  A    between atoms: _410  and  _412
REMARK  175  A    between atoms: _412  and  _413
REMARK  176  A    between atoms: _415  and  _417
REMARK  177  A    between atoms: _417  and  _418
REMARK  178  A    between atoms: _417  and  _420
REMARK  179  A    between atoms: _420  and  _421
REMARK  180  A    between atoms: _421  and  _422
REMARK  181  A    between atoms: _425  and  _427
REMARK  182  A    between atoms: _427  and  _428
REMARK  183  A    between atoms: _430  and  _432
REMARK  184  A    between atoms: _432  and  _433
REMARK  185  A    between atoms: _432  and  _435
REMARK  186  A    between atoms: _435  and  _436
REMARK  187  A    between atoms: _437  and  _439
REMARK  188  A    between atoms: _439  and  _440
REMARK  189  A    between atoms: _443  and  _445
REMARK  190  A    between atoms: _445  and  _446
REMARK  191  A    between atoms: _445  and  _448
REMARK  192  A    between atoms: _448  and  _449
REMARK  193  A    between atoms: _449  and  _450
REMARK  194  A    between atoms: _450  and  _451
REMARK  195  A    between atoms: _460  and  _462
REMARK  196  A    between atoms: _462  and  _463
REMARK  197  A    between atoms: _462  and  _465
REMARK  198  A    between atoms: _465  and  _466
REMARK  199  A    between atoms: _466  and  _467
REMARK  200  A    between atoms: _467  and  _468
REMARK  201  A    between atoms: _468  and  _469
REMARK  202  A    between atoms: _473  and  _475
REMARK  203  A    between atoms: _475  and  _476
REMARK  204  A    between atoms: _475  and  _478
REMARK  205  A    between atoms: _478  and  _479
REMARK  206  A    between atoms: _484  and  _485
REMARK  207  A    between atoms: _487  and  _489
REMARK  208  A    between atoms: _489  and  _490
REMARK  209  A    between atoms: _492  and  _494
REMARK  210  A    between atoms: _494  and  _495
REMARK  211  A    between atoms: _494  and  _497
REMARK  212  A    between atoms: _497  and  _498
REMARK  213  A    between atoms: _501  and  _503
REMARK  214  A    between atoms: _503  and  _504
REMARK  215  A    between atoms: _503  and  _506
REMARK  216  A    between atoms: _506  and  _507
REMARK  217  A    between atoms: _512  and  _513
REMARK  218  A    between atoms: _515  and  _517
REMARK  219  A    between atoms: _517  and  _518
REMARK  220  A    between atoms: _517  and  _520
REMARK  221  A    between atoms: _520  and  _521
REMARK                            x       y       z     vdW  Elec       q    Type
REMARK                         _______ _______ _______ _____ _____    ______ ____
ROOT
ATOM      1  O   HOH     1       3.248  64.355  10.975  0.00  0.00    +0.000 OA
ENDROOT
TORSDOF 0
REMARK  Name = ../refined-set-2016/2vwo/2vwo_pocket.pdb
REMARK  221 active torsions:
REMARK  status: ('A' for Active; 'I' for Inactive)
REMARK    1  A    between atoms: _1  and  _5
REMARK    2  A    between atoms: _5  and  _6
REMARK    3  A    between atoms: _5  and  _8
REMARK    4  A    between atoms: _8  and  _9
REMARK    5  A    between atoms: _12  and  _14
REMARK    6  A    between atoms: _14  and  _15
REMARK    7  A    between atoms: _14  and  _17
REMARK    8  A    between atoms: _20  and  _22
REMARK    9  A    between atoms: _22  and  _23
REMARK   10  A    between atoms: _22  and  _25
REMARK   11  A    between atoms: _25  and  _26
REMARK   12  A    between atoms: _31  and  _33
REMARK   13  A    between atoms: _33  and  _34
REMARK   14  A    between atoms: _33  and  _36
REMARK   15  A    between atoms: _36  and  _37
REMARK   16  A    between atoms: _37  and  _38
REMARK   17  A    between atoms: _43  and  _45
REMARK   18  A    between atoms: _45  and  _46
REMARK   19  A    between atoms: _45  and  _48
REMARK   20  A    between atoms: _48  and  _49
REMARK   21  A    between atoms: _52  and  _54
REMARK   22  A    between atoms: _54  and  _55
REMARK   23  A    between atoms: _54  and  _57
REMARK   24  A    between atoms: _57  and  _58
REMARK   25  A    between atoms: _58  and  _59
REMARK   26  A    between atoms: _59  and  _60
REMARK   27  A    between atoms: _60  and  _61
REMARK   28  A    between atoms: _65  and  _67
REMARK   29  A    between atoms: _67  and  _68
REMARK   30  A    between atoms: _67  and  _70
REMARK   31  A    between atoms: _70  and  _71
REMARK   32  A    between atoms: _71  and  _72
REMARK   33  A    between atoms: _75  and  _77
REMARK   34  A    between atoms: _77  and  _78
REMARK   35  A    between atoms: _77  and  _80
REMARK   36  A    between atoms: _80  and  _81
REMARK   37  A    between atoms: _84  and  _86
REMARK   38  A    between atoms: _86  and  _87
REMARK   39  A    between atoms: _86  and  _89
REMARK   40  A    between atoms: _89  and  _90
REMARK   41  A    between atoms: _95  and  _96
REMARK   42  A    between atoms: _98  and  _100
REMARK   43  A    between atoms: _100  and  _101
REMARK   44  A    between atoms: _100  and  _103
REMARK   45  A    between atoms: _103  and  _104
REMARK   46  A    between atoms: _107  and  _109
REMARK   47  A    between atoms: _109  and  _110
REMARK   48  A    between atoms: _109  and  _112
REMARK   49  A    between atoms: _112  and  _113
REMARK   50  A    between atoms: _116  and  _118
REMARK   51  A    between atoms: _118  and  _119
REMARK   52  A    between atoms: _118  and  _121
REMARK   53  A    between atoms: _124  and  _126
REMARK   54  A    between atoms: _126  and  _127
REMARK   55  A    between atoms: _126  and  _129
REMARK   56  A    between atoms: _129  and  _130
REMARK   57  A    between atoms: _130  and  _131
REMARK   58  A    between atoms: _131  and  _132
REMARK   59  A    between atoms: _141  and  _143
REMARK   60  A    between atoms: _143  and  _144
REMARK   61  A    between atoms: _143  and  _146
REMARK   62  A    between atoms: _146  and  _147
REMARK   63  A    between atoms: _152  and  _154
REMARK   64  A    between atoms: _154  and  _155
REMARK   65  A    between atoms: _154  and  _157
REMARK   66  A    between atoms: _157  and  _158
REMARK   67  A    between atoms: _158  and  _159
REMARK   68  A    between atoms: _162  and  _164
REMARK   69  A    between atoms: _164  and  _165
REMARK   70  A    between atoms: _164  and  _167
REMARK   71  A    between atoms: _167  and  _168
REMARK   72  A    between atoms: _168  and  _169
REMARK   73  A    between atoms: _169  and  _170
REMARK   74  A    between atoms: _170  and  _171
REMARK   75  A    between atoms: _175  and  _177
REMARK   76  A    between atoms: _177  and  _178
REMARK   77  A    between atoms: _180  and  _182
REMARK   78  A    between atoms: _182  and  _183
REMARK   79  A    between atoms: _182  and  _185
REMARK   80  A    between atoms: _188  and  _190
REMARK   81  A    between atoms: _190  and  _191
REMARK   82  A    between atoms: _190  and  _193
REMARK   83  A    between atoms: _193  and  _194
REMARK   84  A    between atoms: _196  and  _198
REMARK   85  A    between atoms: _198  and  _199
REMARK   86  A    between atoms: _198  and  _201
REMARK   87  A    between atoms: _201  and  _202
REMARK   88  A    between atoms: _204  and  _206
REMARK   89  A    between atoms: _206  and  _207
REMARK   90  A    between atoms: _206  and  _209
REMARK   91  A    between atoms: _209  and  _210
REMARK   92  A    between atoms: _216  and  _218
REMARK   93  A    between atoms: _218  and  _219
REMARK   94  A    between atoms: _218  and  _221
REMARK   95  A    between atoms: _221  and  _222
REMARK   96  A    between atoms: _225  and  _227
REMARK   97  A    between atoms: _227  and  _228
REMARK   98  A    between atoms: _227  and  _230
REMARK   99  A    between atoms: _230  and  _231
REMARK  100  A    between atoms: _234  and  _236
REMARK  101  A    between atoms: _236  and  _237
REMARK  102  A    between atoms: _236  and  _239
REMARK  103  A    between atoms: _239  and  _240
REMARK  104  A    between atoms: _243  and  _245
REMARK  105  A    between atoms: _245  and  _246
REMARK  106  A    between atoms: _245  and  _248
REMARK  107  A    between atoms: _248  and  _249
REMARK  108  A    between atoms: _249  and  _250
REMARK  109  A    between atoms: _252  and  _254
REMARK  110  A    between atoms: _254  and  _255
REMARK  111  A    between atoms: _254  and  _257
REMARK  112  A    between atoms: _257  and  _258
REMARK  113  A    between atoms: _264  and  _266
REMARK  114  A    between atoms: _266  and  _267
REMARK  115  A    between atoms: _266  and  _269
REMARK  116  A    between atoms: _271  and  _273
REMARK  117  A    between atoms: _273  and  _274
REMARK  118  A    between atoms: _277  and  _279
REMARK  119  A    between atoms: _279  and  _280
REMARK  120  A    between atoms: _282  and  _284
REMARK  121  A    between atoms: _284  and  _285
REMARK  122  A    between atoms: _284  and  _287
REMARK  123  A    between atoms: _287  and  _288
REMARK  124  A    between atoms: _288  and  _289
REMARK  125  A    between atoms: _292  and  _294
REMARK  126  A    between atoms: _294  and  _295
REMARK  127  A    between atoms: _294  and  _297
REMARK  128  A    between atoms: _297  and  _298
REMARK  129  A    between atoms: _301  and  _303
REMARK  130  A    between atoms: _303  and  _304
REMARK  131  A    between atoms: _307  and  _309
REMARK  132  A    between atoms: _309  and  _310
REMARK  133  A    between atoms: _309  and  _312
REMARK  134  A    between atoms: _312  and  _313
REMARK  135  A    between atoms: _313  and  _436
REMARK  136  A    between atoms: _314  and  _316
REMARK  137  A    between atoms: _316  and  _317
REMARK  138  A    between atoms: _316  and  _319
REMARK  139  A    between atoms: _319  and  _320
REMARK  140  A    between atoms: _320  and  _321
REMARK  141  A    between atoms: _326  and  _328
REMARK  142  A    between atoms: _328  and  _329
REMARK  143  A    between atoms: _331  and  _333
REMARK  144  A    between atoms: _333  and  _334
REMARK  145  A    between atoms: _333  and  _336
REMARK  146  A    between atoms: _336  and  _337
REMARK  147  A    between atoms: _340  and  _342
REMARK  148  A    between atoms: _342  and  _343
REMARK  149  A    between atoms: _342  and  _345
REMARK  150  A    between atoms: _345  and  _346
REMARK  151  A    between atoms: _348  and  _350
REMARK  152  A    between atoms: _350  and  _351
REMARK  153  A    between atoms: _353  and  _355
REMARK  154  A    between atoms: _355  and  _356
REMARK  155  A    between atoms: _358  and  _360
REMARK  156  A    between atoms: _360  and  _361
REMARK  157  A    between atoms: _360  and  _363
REMARK  158  A    between atoms: _363  and  _364
REMARK  159  A    between atoms: _369  and  _371
REMARK  160  A    between atoms: _371  and  _372
REMARK  161  A    between atoms: _371  and  _374
REMARK  162  A    between atoms: _374  and  _375
REMARK  163  A    between atoms: _378  and  _380
REMARK  164  A    between atoms: _380  and  _381
REMARK  165  A    between atoms: _380  and  _383
REMARK  166  A    between atoms: _386  and  _388
REMARK  167  A    between atoms: _388  and  _389
REMARK  168  A    between atoms: _388  and  _391
REMARK  169  A    between atoms: _391  and  _392
REMARK  170  A    between atoms: _394  and  _396
REMARK  171  A    between atoms: _396  and  _397
REMARK  172  A    between atoms: _396  and  _399
REMARK  173  A    between atoms: _399  and  _400
REMARK  174  A    between atoms: _410  and  _412
REMARK  175  A    between atoms: _412  and  _413
REMARK  176  A    between atoms: _415  and  _417
REMARK  177  A    between atoms: _417  and  _418
REMARK  178  A    between atoms: _417  and  _420
REMARK  179  A    between atoms: _420  and  _421
REMARK  180  A    between atoms: _421  and  _422
REMARK  181  A    between atoms: _425  and  _427
REMARK  182  A    between atoms: _427  and  _428
REMARK  183  A    between atoms: _430  and  _432
REMARK  184  A    between atoms: _432  and  _433
REMARK  185  A    between atoms: _432  and  _435
REMARK  186  A    between atoms: _435  and  _436
REMARK  187  A    between atoms: _437  and  _439
REMARK  188  A    between atoms: _439  and  _440
REMARK  189  A    between atoms: _443  and  _445
REMARK  190  A    between atoms: _445  and  _446
REMARK  191  A    between atoms: _445  and  _448
REMARK  192  A    between atoms: _448  and  _449
REMARK  193  A    between atoms: _449  and  _450
REMARK  194  A    between atoms: _450  and  _451
REMARK  195  A    between atoms: _460  and  _462
REMARK  196  A    between atoms: _462  and  _463
REMARK  197  A    between atoms: _462  and  _465
REMARK  198  A    between atoms: _465  and  _466
REMARK  199  A    between atoms: _466  and  _467
REMARK  200  A    between atoms: _467  and  _468
REMARK  201  A    between atoms: _468  and  _469
REMARK  202  A    between atoms: _473  and  _475
REMARK  203  A    between atoms: _475  and  _476
REMARK  204  A    between atoms: _475  and  _478
REMARK  205  A    between atoms: _478  and  _479
REMARK  206  A    between atoms: _484  and  _485
REMARK  207  A    between atoms: _487  and  _489
REMARK  208  A    between atoms: _489  and  _490
REMARK  209  A    between atoms: _492  and  _494
REMARK  210  A    between atoms: _494  and  _495
REMARK  211  A    between atoms: _494  and  _497
REMARK  212  A    between atoms: _497  and  _498
REMARK  213  A    between atoms: _501  and  _503
REMARK  214  A    between atoms: _503  and  _504
REMARK  215  A    between atoms: _503  and  _506
REMARK  216  A    between atoms: _506  and  _507
REMARK  217  A    between atoms: _512  and  _513
REMARK  218  A    between atoms: _515  and  _517
REMARK  219  A    between atoms: _517  and  _518
REMARK  220  A    between atoms: _517  and  _520
REMARK  221  A    between atoms: _520  and  _521
REMARK                            x       y       z     vdW  Elec       q    Type
REMARK                         _______ _______ _______ _____ _____    ______ ____
ROOT
ATOM      1  O   HOH     1       5.468  68.820   5.187  0.00  0.00    +0.000 OA
ENDROOT
TORSDOF 0
REMARK  Name = ../refined-set-2016/2vwo/2vwo_pocket.pdb
REMARK  221 active torsions:
REMARK  status: ('A' for Active; 'I' for Inactive)
REMARK    1  A    between atoms: _1  and  _5
REMARK    2  A    between atoms: _5  and  _6
REMARK    3  A    between atoms: _5  and  _8
REMARK    4  A    between atoms: _8  and  _9
REMARK    5  A    between atoms: _12  and  _14
REMARK    6  A    between atoms: _14  and  _15
REMARK    7  A    between atoms: _14  and  _17
REMARK    8  A    between atoms: _20  and  _22
REMARK    9  A    between atoms: _22  and  _23
REMARK   10  A    between atoms: _22  and  _25
REMARK   11  A    between atoms: _25  and  _26
REMARK   12  A    between atoms: _31  and  _33
REMARK   13  A    between atoms: _33  and  _34
REMARK   14  A    between atoms: _33  and  _36
REMARK   15  A    between atoms: _36  and  _37
REMARK   16  A    between atoms: _37  and  _38
REMARK   17  A    between atoms: _43  and  _45
REMARK   18  A    between atoms: _45  and  _46
REMARK   19  A    between atoms: _45  and  _48
REMARK   20  A    between atoms: _48  and  _49
REMARK   21  A    between atoms: _52  and  _54
REMARK   22  A    between atoms: _54  and  _55
REMARK   23  A    between atoms: _54  and  _57
REMARK   24  A    between atoms: _57  and  _58
REMARK   25  A    between atoms: _58  and  _59
REMARK   26  A    between atoms: _59  and  _60
REMARK   27  A    between atoms: _60  and  _61
REMARK   28  A    between atoms: _65  and  _67
REMARK   29  A    between atoms: _67  and  _68
REMARK   30  A    between atoms: _67  and  _70
REMARK   31  A    between atoms: _70  and  _71
REMARK   32  A    between atoms: _71  and  _72
REMARK   33  A    between atoms: _75  and  _77
REMARK   34  A    between atoms: _77  and  _78
REMARK   35  A    between atoms: _77  and  _80
REMARK   36  A    between atoms: _80  and  _81
REMARK   37  A    between atoms: _84  and  _86
REMARK   38  A    between atoms: _86  and  _87
REMARK   39  A    between atoms: _86  and  _89
REMARK   40  A    between atoms: _89  and  _90
REMARK   41  A    between atoms: _95  and  _96
REMARK   42  A    between atoms: _98  and  _100
REMARK   43  A    between atoms: _100  and  _101
REMARK   44  A    between atoms: _100  and  _103
REMARK   45  A    between atoms: _103  and  _104
REMARK   46  A    between atoms: _107  and  _109
REMARK   47  A    between atoms: _109  and  _110
REMARK   48  A    between atoms: _109  and  _112
REMARK   49  A    between atoms: _112  and  _113
REMARK   50  A    between atoms: _116  and  _118
REMARK   51  A    between atoms: _118  and  _119
REMARK   52  A    between atoms: _118  and  _121
REMARK   53  A    between atoms: _124  and  _126
REMARK   54  A    between atoms: _126  and  _127
REMARK   55  A    between atoms: _126  and  _129
REMARK   56  A    between atoms: _129  and  _130
REMARK   57  A    between atoms: _130  and  _131
REMARK   58  A    between atoms: _131  and  _132
REMARK   59  A    between atoms: _141  and  _143
REMARK   60  A    between atoms: _143  and  _144
REMARK   61  A    between atoms: _143  and  _146
REMARK   62  A    between atoms: _146  and  _147
REMARK   63  A    between atoms: _152  and  _154
REMARK   64  A    between atoms: _154  and  _155
REMARK   65  A    between atoms: _154  and  _157
REMARK   66  A    between atoms: _157  and  _158
REMARK   67  A    between atoms: _158  and  _159
REMARK   68  A    between atoms: _162  and  _164
REMARK   69  A    between atoms: _164  and  _165
REMARK   70  A    between atoms: _164  and  _167
REMARK   71  A    between atoms: _167  and  _168
REMARK   72  A    between atoms: _168  and  _169
REMARK   73  A    between atoms: _169  and  _170
REMARK   74  A    between atoms: _170  and  _171
REMARK   75  A    between atoms: _175  and  _177
REMARK   76  A    between atoms: _177  and  _178
REMARK   77  A    between atoms: _180  and  _182
REMARK   78  A    between atoms: _182  and  _183
REMARK   79  A    between atoms: _182  and  _185
REMARK   80  A    between atoms: _188  and  _190
REMARK   81  A    between atoms: _190  and  _191
REMARK   82  A    between atoms: _190  and  _193
REMARK   83  A    between atoms: _193  and  _194
REMARK   84  A    between atoms: _196  and  _198
REMARK   85  A    between atoms: _198  and  _199
REMARK   86  A    between atoms: _198  and  _201
REMARK   87  A    between atoms: _201  and  _202
REMARK   88  A    between atoms: _204  and  _206
REMARK   89  A    between atoms: _206  and  _207
REMARK   90  A    between atoms: _206  and  _209
REMARK   91  A    between atoms: _209  and  _210
REMARK   92  A    between atoms: _216  and  _218
REMARK   93  A    between atoms: _218  and  _219
REMARK   94  A    between atoms: _218  and  _221
REMARK   95  A    between atoms: _221  and  _222
REMARK   96  A    between atoms: _225  and  _227
REMARK   97  A    between atoms: _227  and  _228
REMARK   98  A    between atoms: _227  and  _230
REMARK   99  A    between atoms: _230  and  _231
REMARK  100  A    between atoms: _234  and  _236
REMARK  101  A    between atoms: _236  and  _237
REMARK  102  A    between atoms: _236  and  _239
REMARK  103  A    between atoms: _239  and  _240
REMARK  104  A    between atoms: _243  and  _245
REMARK  105  A    between atoms: _245  and  _246
REMARK  106  A    between atoms: _245  and  _248
REMARK  107  A    between atoms: _248  and  _249
REMARK  108  A    between atoms: _249  and  _250
REMARK  109  A    between atoms: _252  and  _254
REMARK  110  A    between atoms: _254  and  _255
REMARK  111  A    between atoms: _254  and  _257
REMARK  112  A    between atoms: _257  and  _258
REMARK  113  A    between atoms: _264  and  _266
REMARK  114  A    between atoms: _266  and  _267
REMARK  115  A    between atoms: _266  and  _269
REMARK  116  A    between atoms: _271  and  _273
REMARK  117  A    between atoms: _273  and  _274
REMARK  118  A    between atoms: _277  and  _279
REMARK  119  A    between atoms: _279  and  _280
REMARK  120  A    between atoms: _282  and  _284
REMARK  121  A    between atoms: _284  and  _285
REMARK  122  A    between atoms: _284  and  _287
REMARK  123  A    between atoms: _287  and  _288
REMARK  124  A    between atoms: _288  and  _289
REMARK  125  A    between atoms: _292  and  _294
REMARK  126  A    between atoms: _294  and  _295
REMARK  127  A    between atoms: _294  and  _297
REMARK  128  A    between atoms: _297  and  _298
REMARK  129  A    between atoms: _301  and  _303
REMARK  130  A    between atoms: _303  and  _304
REMARK  131  A    between atoms: _307  and  _309
REMARK  132  A    between atoms: _309  and  _310
REMARK  133  A    between atoms: _309  and  _312
REMARK  134  A    between atoms: _312  and  _313
REMARK  135  A    between atoms: _313  and  _436
REMARK  136  A    between atoms: _314  and  _316
REMARK  137  A    between atoms: _316  and  _317
REMARK  138  A    between atoms: _316  and  _319
REMARK  139  A    between atoms: _319  and  _320
REMARK  140  A    between atoms: _320  and  _321
REMARK  141  A    between atoms: _326  and  _328
REMARK  142  A    between atoms: _328  and  _329
REMARK  143  A    between atoms: _331  and  _333
REMARK  144  A    between atoms: _333  and  _334
REMARK  145  A    between atoms: _333  and  _336
REMARK  146  A    between atoms: _336  and  _337
REMARK  147  A    between atoms: _340  and  _342
REMARK  148  A    between atoms: _342  and  _343
REMARK  149  A    between atoms: _342  and  _345
REMARK  150  A    between atoms: _345  and  _346
REMARK  151  A    between atoms: _348  and  _350
REMARK  152  A    between atoms: _350  and  _351
REMARK  153  A    between atoms: _353  and  _355
REMARK  154  A    between atoms: _355  and  _356
REMARK  155  A    between atoms: _358  and  _360
REMARK  156  A    between atoms: _360  and  _361
REMARK  157  A    between atoms: _360  and  _363
REMARK  158  A    between atoms: _363  and  _364
REMARK  159  A    between atoms: _369  and  _371
REMARK  160  A    between atoms: _371  and  _372
REMARK  161  A    between atoms: _371  and  _374
REMARK  162  A    between atoms: _374  and  _375
REMARK  163  A    between atoms: _378  and  _380
REMARK  164  A    between atoms: _380  and  _381
REMARK  165  A    between atoms: _380  and  _383
REMARK  166  A    between atoms: _386  and  _388
REMARK  167  A    between atoms: _388  and  _389
REMARK  168  A    between atoms: _388  and  _391
REMARK  169  A    between atoms: _391  and  _392
REMARK  170  A    between atoms: _394  and  _396
REMARK  171  A    between atoms: _396  and  _397
REMARK  172  A    between atoms: _396  and  _399
REMARK  173  A    between atoms: _399  and  _400
REMARK  174  A    between atoms: _410  and  _412
REMARK  175  A    between atoms: _412  and  _413
REMARK  176  A    between atoms: _415  and  _417
REMARK  177  A    between atoms: _417  and  _418
REMARK  178  A    between atoms: _417  and  _420
REMARK  179  A    between atoms: _420  and  _421
REMARK  180  A    between atoms: _421  and  _422
REMARK  181  A    between atoms: _425  and  _427
REMARK  182  A    between atoms: _427  and  _428
REMARK  183  A    between atoms: _430  and  _432
REMARK  184  A    between atoms: _432  and  _433
REMARK  185  A    between atoms: _432  and  _435
REMARK  186  A    between atoms: _435  and  _436
REMARK  187  A    between atoms: _437  and  _439
REMARK  188  A    between atoms: _439  and  _440
REMARK  189  A    between atoms: _443  and  _445
REMARK  190  A    between atoms: _445  and  _446
REMARK  191  A    between atoms: _445  and  _448
REMARK  192  A    between atoms: _448  and  _449
REMARK  193  A    between atoms: _449  and  _450
REMARK  194  A    between atoms: _450  and  _451
REMARK  195  A    between atoms: _460  and  _462
REMARK  196  A    between atoms: _462  and  _463
REMARK  197  A    between atoms: _462  and  _465
REMARK  198  A    between atoms: _465  and  _466
REMARK  199  A    between atoms: _466  and  _467
REMARK  200  A    between atoms: _467  and  _468
REMARK  201  A    between atoms: _468  and  _469
REMARK  202  A    between atoms: _473  and  _475
REMARK  203  A    between atoms: _475  and  _476
REMARK  204  A    between atoms: _475  and  _478
REMARK  205  A    between atoms: _478  and  _479
REMARK  206  A    between atoms: _484  and  _485
REMARK  207  A    between atoms: _487  and  _489
REMARK  208  A    between atoms: _489  and  _490
REMARK  209  A    between atoms: _492  and  _494
REMARK  210  A    between atoms: _494  and  _495
REMARK  211  A    between atoms: _494  and  _497
REMARK  212  A    between atoms: _497  and  _498
REMARK  213  A    between atoms: _501  and  _503
REMARK  214  A    between atoms: _503  and  _504
REMARK  215  A    between atoms: _503  and  _506
REMARK  216  A    between atoms: _506  and  _507
REMARK  217  A    between atoms: _512  and  _513
REMARK  218  A    between atoms: _515  and  _517
REMARK  219  A    between atoms: _517  and  _518
REMARK  220  A    between atoms: _517  and  _520
REMARK  221  A    between atoms: _520  and  _521
REMARK                            x       y       z     vdW  Elec       q    Type
REMARK                         _______ _______ _______ _____ _____    ______ ____
ROOT
ATOM      1  O   HOH     1      13.474  65.717  13.639  0.00  0.00    +0.000 OA
ENDROOT
TORSDOF 0
REMARK  Name = ../refined-set-2016/2vwo/2vwo_pocket.pdb
REMARK  221 active torsions:
REMARK  status: ('A' for Active; 'I' for Inactive)
REMARK    1  A    between atoms: _1  and  _5
REMARK    2  A    between atoms: _5  and  _6
REMARK    3  A    between atoms: _5  and  _8
REMARK    4  A    between atoms: _8  and  _9
REMARK    5  A    between atoms: _12  and  _14
REMARK    6  A    between atoms: _14  and  _15
REMARK    7  A    between atoms: _14  and  _17
REMARK    8  A    between atoms: _20  and  _22
REMARK    9  A    between atoms: _22  and  _23
REMARK   10  A    between atoms: _22  and  _25
REMARK   11  A    between atoms: _25  and  _26
REMARK   12  A    between atoms: _31  and  _33
REMARK   13  A    between atoms: _33  and  _34
REMARK   14  A    between atoms: _33  and  _36
REMARK   15  A    between atoms: _36  and  _37
REMARK   16  A    between atoms: _37  and  _38
REMARK   17  A    between atoms: _43  and  _45
REMARK   18  A    between atoms: _45  and  _46
REMARK   19  A    between atoms: _45  and  _48
REMARK   20  A    between atoms: _48  and  _49
REMARK   21  A    between atoms: _52  and  _54
REMARK   22  A    between atoms: _54  and  _55
REMARK   23  A    between atoms: _54  and  _57
REMARK   24  A    between atoms: _57  and  _58
REMARK   25  A    between atoms: _58  and  _59
REMARK   26  A    between atoms: _59  and  _60
REMARK   27  A    between atoms: _60  and  _61
REMARK   28  A    between atoms: _65  and  _67
REMARK   29  A    between atoms: _67  and  _68
REMARK   30  A    between atoms: _67  and  _70
REMARK   31  A    between atoms: _70  and  _71
REMARK   32  A    between atoms: _71  and  _72
REMARK   33  A    between atoms: _75  and  _77
REMARK   34  A    between atoms: _77  and  _78
REMARK   35  A    between atoms: _77  and  _80
REMARK   36  A    between atoms: _80  and  _81
REMARK   37  A    between atoms: _84  and  _86
REMARK   38  A    between atoms: _86  and  _87
REMARK   39  A    between atoms: _86  and  _89
REMARK   40  A    between atoms: _89  and  _90
REMARK   41  A    between atoms: _95  and  _96
REMARK   42  A    between atoms: _98  and  _100
REMARK   43  A    between atoms: _100  and  _101
REMARK   44  A    between atoms: _100  and  _103
REMARK   45  A    between atoms: _103  and  _104
REMARK   46  A    between atoms: _107  and  _109
REMARK   47  A    between atoms: _109  and  _110
REMARK   48  A    between atoms: _109  and  _112
REMARK   49  A    between atoms: _112  and  _113
REMARK   50  A    between atoms: _116  and  _118
REMARK   51  A    between atoms: _118  and  _119
REMARK   52  A    between atoms: _118  and  _121
REMARK   53  A    between atoms: _124  and  _126
REMARK   54  A    between atoms: _126  and  _127
REMARK   55  A    between atoms: _126  and  _129
REMARK   56  A    between atoms: _129  and  _130
REMARK   57  A    between atoms: _130  and  _131
REMARK   58  A    between atoms: _131  and  _132
REMARK   59  A    between atoms: _141  and  _143
REMARK   60  A    between atoms: _143  and  _144
REMARK   61  A    between atoms: _143  and  _146
REMARK   62  A    between atoms: _146  and  _147
REMARK   63  A    between atoms: _152  and  _154
REMARK   64  A    between atoms: _154  and  _155
REMARK   65  A    between atoms: _154  and  _157
REMARK   66  A    between atoms: _157  and  _158
REMARK   67  A    between atoms: _158  and  _159
REMARK   68  A    between atoms: _162  and  _164
REMARK   69  A    between atoms: _164  and  _165
REMARK   70  A    between atoms: _164  and  _167
REMARK   71  A    between atoms: _167  and  _168
REMARK   72  A    between atoms: _168  and  _169
REMARK   73  A    between atoms: _169  and  _170
REMARK   74  A    between atoms: _170  and  _171
REMARK   75  A    between atoms: _175  and  _177
REMARK   76  A    between atoms: _177  and  _178
REMARK   77  A    between atoms: _180  and  _182
REMARK   78  A    between atoms: _182  and  _183
REMARK   79  A    between atoms: _182  and  _185
REMARK   80  A    between atoms: _188  and  _190
REMARK   81  A    between atoms: _190  and  _191
REMARK   82  A    between atoms: _190  and  _193
REMARK   83  A    between atoms: _193  and  _194
REMARK   84  A    between atoms: _196  and  _198
REMARK   85  A    between atoms: _198  and  _199
REMARK   86  A    between atoms: _198  and  _201
REMARK   87  A    between atoms: _201  and  _202
REMARK   88  A    between atoms: _204  and  _206
REMARK   89  A    between atoms: _206  and  _207
REMARK   90  A    between atoms: _206  and  _209
REMARK   91  A    between atoms: _209  and  _210
REMARK   92  A    between atoms: _216  and  _218
REMARK   93  A    between atoms: _218  and  _219
REMARK   94  A    between atoms: _218  and  _221
REMARK   95  A    between atoms: _221  and  _222
REMARK   96  A    between atoms: _225  and  _227
REMARK   97  A    between atoms: _227  and  _228
REMARK   98  A    between atoms: _227  and  _230
REMARK   99  A    between atoms: _230  and  _231
REMARK  100  A    between atoms: _234  and  _236
REMARK  101  A    between atoms: _236  and  _237
REMARK  102  A    between atoms: _236  and  _239
REMARK  103  A    between atoms: _239  and  _240
REMARK  104  A    between atoms: _243  and  _245
REMARK  105  A    between atoms: _245  and  _246
REMARK  106  A    between atoms: _245  and  _248
REMARK  107  A    between atoms: _248  and  _249
REMARK  108  A    between atoms: _249  and  _250
REMARK  109  A    between atoms: _252  and  _254
REMARK  110  A    between atoms: _254  and  _255
REMARK  111  A    between atoms: _254  and  _257
REMARK  112  A    between atoms: _257  and  _258
REMARK  113  A    between atoms: _264  and  _266
REMARK  114  A    between atoms: _266  and  _267
REMARK  115  A    between atoms: _266  and  _269
REMARK  116  A    between atoms: _271  and  _273
REMARK  117  A    between atoms: _273  and  _274
REMARK  118  A    between atoms: _277  and  _279
REMARK  119  A    between atoms: _279  and  _280
REMARK  120  A    between atoms: _282  and  _284
REMARK  121  A    between atoms: _284  and  _285
REMARK  122  A    between atoms: _284  and  _287
REMARK  123  A    between atoms: _287  and  _288
REMARK  124  A    between atoms: _288  and  _289
REMARK  125  A    between atoms: _292  and  _294
REMARK  126  A    between atoms: _294  and  _295
REMARK  127  A    between atoms: _294  and  _297
REMARK  128  A    between atoms: _297  and  _298
REMARK  129  A    between atoms: _301  and  _303
REMARK  130  A    between atoms: _303  and  _304
REMARK  131  A    between atoms: _307  and  _309
REMARK  132  A    between atoms: _309  and  _310
REMARK  133  A    between atoms: _309  and  _312
REMARK  134  A    between atoms: _312  and  _313
REMARK  135  A    between atoms: _313  and  _436
REMARK  136  A    between atoms: _314  and  _316
REMARK  137  A    between atoms: _316  and  _317
REMARK  138  A    between atoms: _316  and  _319
REMARK  139  A    between atoms: _319  and  _320
REMARK  140  A    between atoms: _320  and  _321
REMARK  141  A    between atoms: _326  and  _328
REMARK  142  A    between atoms: _328  and  _329
REMARK  143  A    between atoms: _331  and  _333
REMARK  144  A    between atoms: _333  and  _334
REMARK  145  A    between atoms: _333  and  _336
REMARK  146  A    between atoms: _336  and  _337
REMARK  147  A    between atoms: _340  and  _342
REMARK  148  A    between atoms: _342  and  _343
REMARK  149  A    between atoms: _342  and  _345
REMARK  150  A    between atoms: _345  and  _346
REMARK  151  A    between atoms: _348  and  _350
REMARK  152  A    between atoms: _350  and  _351
REMARK  153  A    between atoms: _353  and  _355
REMARK  154  A    between atoms: _355  and  _356
REMARK  155  A    between atoms: _358  and  _360
REMARK  156  A    between atoms: _360  and  _361
REMARK  157  A    between atoms: _360  and  _363
REMARK  158  A    between atoms: _363  and  _364
REMARK  159  A    between atoms: _369  and  _371
REMARK  160  A    between atoms: _371  and  _372
REMARK  161  A    between atoms: _371  and  _374
REMARK  162  A    between atoms: _374  and  _375
REMARK  163  A    between atoms: _378  and  _380
REMARK  164  A    between atoms: _380  and  _381
REMARK  165  A    between atoms: _380  and  _383
REMARK  166  A    between atoms: _386  and  _388
REMARK  167  A    between atoms: _388  and  _389
REMARK  168  A    between atoms: _388  and  _391
REMARK  169  A    between atoms: _391  and  _392
REMARK  170  A    between atoms: _394  and  _396
REMARK  171  A    between atoms: _396  and  _397
REMARK  172  A    between atoms: _396  and  _399
REMARK  173  A    between atoms: _399  and  _400
REMARK  174  A    between atoms: _410  and  _412
REMARK  175  A    between atoms: _412  and  _413
REMARK  176  A    between atoms: _415  and  _417
REMARK  177  A    between atoms: _417  and  _418
REMARK  178  A    between atoms: _417  and  _420
REMARK  179  A    between atoms: _420  and  _421
REMARK  180  A    between atoms: _421  and  _422
REMARK  181  A    between atoms: _425  and  _427
REMARK  182  A    between atoms: _427  and  _428
REMARK  183  A    between atoms: _430  and  _432
REMARK  184  A    between atoms: _432  and  _433
REMARK  185  A    between atoms: _432  and  _435
REMARK  186  A    between atoms: _435  and  _436
REMARK  187  A    between atoms: _437  and  _439
REMARK  188  A    between atoms: _439  and  _440
REMARK  189  A    between atoms: _443  and  _445
REMARK  190  A    between atoms: _445  and  _446
REMARK  191  A    between atoms: _445  and  _448
REMARK  192  A    between atoms: _448  and  _449
REMARK  193  A    between atoms: _449  and  _450
REMARK  194  A    between atoms: _450  and  _451
REMARK  195  A    between atoms: _460  and  _462
REMARK  196  A    between atoms: _462  and  _463
REMARK  197  A    between atoms: _462  and  _465
REMARK  198  A    between atoms: _465  and  _466
REMARK  199  A    between atoms: _466  and  _467
REMARK  200  A    between atoms: _467  and  _468
REMARK  201  A    between atoms: _468  and  _469
REMARK  202  A    between atoms: _473  and  _475
REMARK  203  A    between atoms: _475  and  _476
REMARK  204  A    between atoms: _475  and  _478
REMARK  205  A    between atoms: _478  and  _479
REMARK  206  A    between atoms: _484  and  _485
REMARK  207  A    between atoms: _487  and  _489
REMARK  208  A    between atoms: _489  and  _490
REMARK  209  A    between atoms: _492  and  _494
REMARK  210  A    between atoms: _494  and  _495
REMARK  211  A    between atoms: _494  and  _497
REMARK  212  A    between atoms: _497  and  _498
REMARK  213  A    between atoms: _501  and  _503
REMARK  214  A    between atoms: _503  and  _504
REMARK  215  A    between atoms: _503  and  _506
REMARK  216  A    between atoms: _506  and  _507
REMARK  217  A    between atoms: _512  and  _513
REMARK  218  A    between atoms: _515  and  _517
REMARK  219  A    between atoms: _517  and  _518
REMARK  220  A    between atoms: _517  and  _520
REMARK  221  A    between atoms: _520  and  _521
REMARK                            x       y       z     vdW  Elec       q    Type
REMARK                         _______ _______ _______ _____ _____    ______ ____
ROOT
ATOM      1  O   HOH     1       9.803  61.857  10.571  0.00  0.00    +0.000 OA
ENDROOT
TORSDOF 0
REMARK  Name = ../refined-set-2016/2vwo/2vwo_pocket.pdb
REMARK  221 active torsions:
REMARK  status: ('A' for Active; 'I' for Inactive)
REMARK    1  A    between atoms: _1  and  _5
REMARK    2  A    between atoms: _5  and  _6
REMARK    3  A    between atoms: _5  and  _8
REMARK    4  A    between atoms: _8  and  _9
REMARK    5  A    between atoms: _12  and  _14
REMARK    6  A    between atoms: _14  and  _15
REMARK    7  A    between atoms: _14  and  _17
REMARK    8  A    between atoms: _20  and  _22
REMARK    9  A    between atoms: _22  and  _23
REMARK   10  A    between atoms: _22  and  _25
REMARK   11  A    between atoms: _25  and  _26
REMARK   12  A    between atoms: _31  and  _33
REMARK   13  A    between atoms: _33  and  _34
REMARK   14  A    between atoms: _33  and  _36
REMARK   15  A    between atoms: _36  and  _37
REMARK   16  A    between atoms: _37  and  _38
REMARK   17  A    between atoms: _43  and  _45
REMARK   18  A    between atoms: _45  and  _46
REMARK   19  A    between atoms: _45  and  _48
REMARK   20  A    between atoms: _48  and  _49
REMARK   21  A    between atoms: _52  and  _54
REMARK   22  A    between atoms: _54  and  _55
REMARK   23  A    between atoms: _54  and  _57
REMARK   24  A    between atoms: _57  and  _58
REMARK   25  A    between atoms: _58  and  _59
REMARK   26  A    between atoms: _59  and  _60
REMARK   27  A    between atoms: _60  and  _61
REMARK   28  A    between atoms: _65  and  _67
REMARK   29  A    between atoms: _67  and  _68
REMARK   30  A    between atoms: _67  and  _70
REMARK   31  A    between atoms: _70  and  _71
REMARK   32  A    between atoms: _71  and  _72
REMARK   33  A    between atoms: _75  and  _77
REMARK   34  A    between atoms: _77  and  _78
REMARK   35  A    between atoms: _77  and  _80
REMARK   36  A    between atoms: _80  and  _81
REMARK   37  A    between atoms: _84  and  _86
REMARK   38  A    between atoms: _86  and  _87
REMARK   39  A    between atoms: _86  and  _89
REMARK   40  A    between atoms: _89  and  _90
REMARK   41  A    between atoms: _95  and  _96
REMARK   42  A    between atoms: _98  and  _100
REMARK   43  A    between atoms: _100  and  _101
REMARK   44  A    between atoms: _100  and  _103
REMARK   45  A    between atoms: _103  and  _104
REMARK   46  A    between atoms: _107  and  _109
REMARK   47  A    between atoms: _109  and  _110
REMARK   48  A    between atoms: _109  and  _112
REMARK   49  A    between atoms: _112  and  _113
REMARK   50  A    between atoms: _116  and  _118
REMARK   51  A    between atoms: _118  and  _119
REMARK   52  A    between atoms: _118  and  _121
REMARK   53  A    between atoms: _124  and  _126
REMARK   54  A    between atoms: _126  and  _127
REMARK   55  A    between atoms: _126  and  _129
REMARK   56  A    between atoms: _129  and  _130
REMARK   57  A    between atoms: _130  and  _131
REMARK   58  A    between atoms: _131  and  _132
REMARK   59  A    between atoms: _141  and  _143
REMARK   60  A    between atoms: _143  and  _144
REMARK   61  A    between atoms: _143  and  _146
REMARK   62  A    between atoms: _146  and  _147
REMARK   63  A    between atoms: _152  and  _154
REMARK   64  A    between atoms: _154  and  _155
REMARK   65  A    between atoms: _154  and  _157
REMARK   66  A    between atoms: _157  and  _158
REMARK   67  A    between atoms: _158  and  _159
REMARK   68  A    between atoms: _162  and  _164
REMARK   69  A    between atoms: _164  and  _165
REMARK   70  A    between atoms: _164  and  _167
REMARK   71  A    between atoms: _167  and  _168
REMARK   72  A    between atoms: _168  and  _169
REMARK   73  A    between atoms: _169  and  _170
REMARK   74  A    between atoms: _170  and  _171
REMARK   75  A    between atoms: _175  and  _177
REMARK   76  A    between atoms: _177  and  _178
REMARK   77  A    between atoms: _180  and  _182
REMARK   78  A    between atoms: _182  and  _183
REMARK   79  A    between atoms: _182  and  _185
REMARK   80  A    between atoms: _188  and  _190
REMARK   81  A    between atoms: _190  and  _191
REMARK   82  A    between atoms: _190  and  _193
REMARK   83  A    between atoms: _193  and  _194
REMARK   84  A    between atoms: _196  and  _198
REMARK   85  A    between atoms: _198  and  _199
REMARK   86  A    between atoms: _198  and  _201
REMARK   87  A    between atoms: _201  and  _202
REMARK   88  A    between atoms: _204  and  _206
REMARK   89  A    between atoms: _206  and  _207
REMARK   90  A    between atoms: _206  and  _209
REMARK   91  A    between atoms: _209  and  _210
REMARK   92  A    between atoms: _216  and  _218
REMARK   93  A    between atoms: _218  and  _219
REMARK   94  A    between atoms: _218  and  _221
REMARK   95  A    between atoms: _221  and  _222
REMARK   96  A    between atoms: _225  and  _227
REMARK   97  A    between atoms: _227  and  _228
REMARK   98  A    between atoms: _227  and  _230
REMARK   99  A    between atoms: _230  and  _231
REMARK  100  A    between atoms: _234  and  _236
REMARK  101  A    between atoms: _236  and  _237
REMARK  102  A    between atoms: _236  and  _239
REMARK  103  A    between atoms: _239  and  _240
REMARK  104  A    between atoms: _243  and  _245
REMARK  105  A    between atoms: _245  and  _246
REMARK  106  A    between atoms: _245  and  _248
REMARK  107  A    between atoms: _248  and  _249
REMARK  108  A    between atoms: _249  and  _250
REMARK  109  A    between atoms: _252  and  _254
REMARK  110  A    between atoms: _254  and  _255
REMARK  111  A    between atoms: _254  and  _257
REMARK  112  A    between atoms: _257  and  _258
REMARK  113  A    between atoms: _264  and  _266
REMARK  114  A    between atoms: _266  and  _267
REMARK  115  A    between atoms: _266  and  _269
REMARK  116  A    between atoms: _271  and  _273
REMARK  117  A    between atoms: _273  and  _274
REMARK  118  A    between atoms: _277  and  _279
REMARK  119  A    between atoms: _279  and  _280
REMARK  120  A    between atoms: _282  and  _284
REMARK  121  A    between atoms: _284  and  _285
REMARK  122  A    between atoms: _284  and  _287
REMARK  123  A    between atoms: _287  and  _288
REMARK  124  A    between atoms: _288  and  _289
REMARK  125  A    between atoms: _292  and  _294
REMARK  126  A    between atoms: _294  and  _295
REMARK  127  A    between atoms: _294  and  _297
REMARK  128  A    between atoms: _297  and  _298
REMARK  129  A    between atoms: _301  and  _303
REMARK  130  A    between atoms: _303  and  _304
REMARK  131  A    between atoms: _307  and  _309
REMARK  132  A    between atoms: _309  and  _310
REMARK  133  A    between atoms: _309  and  _312
REMARK  134  A    between atoms: _312  and  _313
REMARK  135  A    between atoms: _313  and  _436
REMARK  136  A    between atoms: _314  and  _316
REMARK  137  A    between atoms: _316  and  _317
REMARK  138  A    between atoms: _316  and  _319
REMARK  139  A    between atoms: _319  and  _320
REMARK  140  A    between atoms: _320  and  _321
REMARK  141  A    between atoms: _326  and  _328
REMARK  142  A    between atoms: _328  and  _329
REMARK  143  A    between atoms: _331  and  _333
REMARK  144  A    between atoms: _333  and  _334
REMARK  145  A    between atoms: _333  and  _336
REMARK  146  A    between atoms: _336  and  _337
REMARK  147  A    between atoms: _340  and  _342
REMARK  148  A    between atoms: _342  and  _343
REMARK  149  A    between atoms: _342  and  _345
REMARK  150  A    between atoms: _345  and  _346
REMARK  151  A    between atoms: _348  and  _350
REMARK  152  A    between atoms: _350  and  _351
REMARK  153  A    between atoms: _353  and  _355
REMARK  154  A    between atoms: _355  and  _356
REMARK  155  A    between atoms: _358  and  _360
REMARK  156  A    between atoms: _360  and  _361
REMARK  157  A    between atoms: _360  and  _363
REMARK  158  A    between atoms: _363  and  _364
REMARK  159  A    between atoms: _369  and  _371
REMARK  160  A    between atoms: _371  and  _372
REMARK  161  A    between atoms: _371  and  _374
REMARK  162  A    between atoms: _374  and  _375
REMARK  163  A    between atoms: _378  and  _380
REMARK  164  A    between atoms: _380  and  _381
REMARK  165  A    between atoms: _380  and  _383
REMARK  166  A    between atoms: _386  and  _388
REMARK  167  A    between atoms: _388  and  _389
REMARK  168  A    between atoms: _388  and  _391
REMARK  169  A    between atoms: _391  and  _392
REMARK  170  A    between atoms: _394  and  _396
REMARK  171  A    between atoms: _396  and  _397
REMARK  172  A    between atoms: _396  and  _399
REMARK  173  A    between atoms: _399  and  _400
REMARK  174  A    between atoms: _410  and  _412
REMARK  175  A    between atoms: _412  and  _413
REMARK  176  A    between atoms: _415  and  _417
REMARK  177  A    between atoms: _417  and  _418
REMARK  178  A    between atoms: _417  and  _420
REMARK  179  A    between atoms: _420  and  _421
REMARK  180  A    between atoms: _421  and  _422
REMARK  181  A    between atoms: _425  and  _427
REMARK  182  A    between atoms: _427  and  _428
REMARK  183  A    between atoms: _430  and  _432
REMARK  184  A    between atoms: _432  and  _433
REMARK  185  A    between atoms: _432  and  _435
REMARK  186  A    between atoms: _435  and  _436
REMARK  187  A    between atoms: _437  and  _439
REMARK  188  A    between atoms: _439  and  _440
REMARK  189  A    between atoms: _443  and  _445
REMARK  190  A    between atoms: _445  and  _446
REMARK  191  A    between atoms: _445  and  _448
REMARK  192  A    between atoms: _448  and  _449
REMARK  193  A    between atoms: _449  and  _450
REMARK  194  A    between atoms: _450  and  _451
REMARK  195  A    between atoms: _460  and  _462
REMARK  196  A    between atoms: _462  and  _463
REMARK  197  A    between atoms: _462  and  _465
REMARK  198  A    between atoms: _465  and  _466
REMARK  199  A    between atoms: _466  and  _467
REMARK  200  A    between atoms: _467  and  _468
REMARK  201  A    between atoms: _468  and  _469
REMARK  202  A    between atoms: _473  and  _475
REMARK  203  A    between atoms: _475  and  _476
REMARK  204  A    between atoms: _475  and  _478
REMARK  205  A    between atoms: _478  and  _479
REMARK  206  A    between atoms: _484  and  _485
REMARK  207  A    between atoms: _487  and  _489
REMARK  208  A    between atoms: _489  and  _490
REMARK  209  A    between atoms: _492  and  _494
REMARK  210  A    between atoms: _494  and  _495
REMARK  211  A    between atoms: _494  and  _497
REMARK  212  A    between atoms: _497  and  _498
REMARK  213  A    between atoms: _501  and  _503
REMARK  214  A    between atoms: _503  and  _504
REMARK  215  A    between atoms: _503  and  _506
REMARK  216  A    between atoms: _506  and  _507
REMARK  217  A    between atoms: _512  and  _513
REMARK  218  A    between atoms: _515  and  _517
REMARK  219  A    between atoms: _517  and  _518
REMARK  220  A    between atoms: _517  and  _520
REMARK  221  A    between atoms: _520  and  _521
REMARK                            x       y       z     vdW  Elec       q    Type
REMARK                         _______ _______ _______ _____ _____    ______ ____
ROOT
ATOM      1  O   HOH     1       4.224  58.343  -0.398  0.00  0.00    +0.000 OA
ENDROOT
TORSDOF 0
REMARK  Name = ../refined-set-2016/2vwo/2vwo_pocket.pdb
REMARK  221 active torsions:
REMARK  status: ('A' for Active; 'I' for Inactive)
REMARK    1  A    between atoms: _1  and  _5
REMARK    2  A    between atoms: _5  and  _6
REMARK    3  A    between atoms: _5  and  _8
REMARK    4  A    between atoms: _8  and  _9
REMARK    5  A    between atoms: _12  and  _14
REMARK    6  A    between atoms: _14  and  _15
REMARK    7  A    between atoms: _14  and  _17
REMARK    8  A    between atoms: _20  and  _22
REMARK    9  A    between atoms: _22  and  _23
REMARK   10  A    between atoms: _22  and  _25
REMARK   11  A    between atoms: _25  and  _26
REMARK   12  A    between atoms: _31  and  _33
REMARK   13  A    between atoms: _33  and  _34
REMARK   14  A    between atoms: _33  and  _36
REMARK   15  A    between atoms: _36  and  _37
REMARK   16  A    between atoms: _37  and  _38
REMARK   17  A    between atoms: _43  and  _45
REMARK   18  A    between atoms: _45  and  _46
REMARK   19  A    between atoms: _45  and  _48
REMARK   20  A    between atoms: _48  and  _49
REMARK   21  A    between atoms: _52  and  _54
REMARK   22  A    between atoms: _54  and  _55
REMARK   23  A    between atoms: _54  and  _57
REMARK   24  A    between atoms: _57  and  _58
REMARK   25  A    between atoms: _58  and  _59
REMARK   26  A    between atoms: _59  and  _60
REMARK   27  A    between atoms: _60  and  _61
REMARK   28  A    between atoms: _65  and  _67
REMARK   29  A    between atoms: _67  and  _68
REMARK   30  A    between atoms: _67  and  _70
REMARK   31  A    between atoms: _70  and  _71
REMARK   32  A    between atoms: _71  and  _72
REMARK   33  A    between atoms: _75  and  _77
REMARK   34  A    between atoms: _77  and  _78
REMARK   35  A    between atoms: _77  and  _80
REMARK   36  A    between atoms: _80  and  _81
REMARK   37  A    between atoms: _84  and  _86
REMARK   38  A    between atoms: _86  and  _87
REMARK   39  A    between atoms: _86  and  _89
REMARK   40  A    between atoms: _89  and  _90
REMARK   41  A    between atoms: _95  and  _96
REMARK   42  A    between atoms: _98  and  _100
REMARK   43  A    between atoms: _100  and  _101
REMARK   44  A    between atoms: _100  and  _103
REMARK   45  A    between atoms: _103  and  _104
REMARK   46  A    between atoms: _107  and  _109
REMARK   47  A    between atoms: _109  and  _110
REMARK   48  A    between atoms: _109  and  _112
REMARK   49  A    between atoms: _112  and  _113
REMARK   50  A    between atoms: _116  and  _118
REMARK   51  A    between atoms: _118  and  _119
REMARK   52  A    between atoms: _118  and  _121
REMARK   53  A    between atoms: _124  and  _126
REMARK   54  A    between atoms: _126  and  _127
REMARK   55  A    between atoms: _126  and  _129
REMARK   56  A    between atoms: _129  and  _130
REMARK   57  A    between atoms: _130  and  _131
REMARK   58  A    between atoms: _131  and  _132
REMARK   59  A    between atoms: _141  and  _143
REMARK   60  A    between atoms: _143  and  _144
REMARK   61  A    between atoms: _143  and  _146
REMARK   62  A    between atoms: _146  and  _147
REMARK   63  A    between atoms: _152  and  _154
REMARK   64  A    between atoms: _154  and  _155
REMARK   65  A    between atoms: _154  and  _157
REMARK   66  A    between atoms: _157  and  _158
REMARK   67  A    between atoms: _158  and  _159
REMARK   68  A    between atoms: _162  and  _164
REMARK   69  A    between atoms: _164  and  _165
REMARK   70  A    between atoms: _164  and  _167
REMARK   71  A    between atoms: _167  and  _168
REMARK   72  A    between atoms: _168  and  _169
REMARK   73  A    between atoms: _169  and  _170
REMARK   74  A    between atoms: _170  and  _171
REMARK   75  A    between atoms: _175  and  _177
REMARK   76  A    between atoms: _177  and  _178
REMARK   77  A    between atoms: _180  and  _182
REMARK   78  A    between atoms: _182  and  _183
REMARK   79  A    between atoms: _182  and  _185
REMARK   80  A    between atoms: _188  and  _190
REMARK   81  A    between atoms: _190  and  _191
REMARK   82  A    between atoms: _190  and  _193
REMARK   83  A    between atoms: _193  and  _194
REMARK   84  A    between atoms: _196  and  _198
REMARK   85  A    between atoms: _198  and  _199
REMARK   86  A    between atoms: _198  and  _201
REMARK   87  A    between atoms: _201  and  _202
REMARK   88  A    between atoms: _204  and  _206
REMARK   89  A    between atoms: _206  and  _207
REMARK   90  A    between atoms: _206  and  _209
REMARK   91  A    between atoms: _209  and  _210
REMARK   92  A    between atoms: _216  and  _218
REMARK   93  A    between atoms: _218  and  _219
REMARK   94  A    between atoms: _218  and  _221
REMARK   95  A    between atoms: _221  and  _222
REMARK   96  A    between atoms: _225  and  _227
REMARK   97  A    between atoms: _227  and  _228
REMARK   98  A    between atoms: _227  and  _230
REMARK   99  A    between atoms: _230  and  _231
REMARK  100  A    between atoms: _234  and  _236
REMARK  101  A    between atoms: _236  and  _237
REMARK  102  A    between atoms: _236  and  _239
REMARK  103  A    between atoms: _239  and  _240
REMARK  104  A    between atoms: _243  and  _245
REMARK  105  A    between atoms: _245  and  _246
REMARK  106  A    between atoms: _245  and  _248
REMARK  107  A    between atoms: _248  and  _249
REMARK  108  A    between atoms: _249  and  _250
REMARK  109  A    between atoms: _252  and  _254
REMARK  110  A    between atoms: _254  and  _255
REMARK  111  A    between atoms: _254  and  _257
REMARK  112  A    between atoms: _257  and  _258
REMARK  113  A    between atoms: _264  and  _266
REMARK  114  A    between atoms: _266  and  _267
REMARK  115  A    between atoms: _266  and  _269
REMARK  116  A    between atoms: _271  and  _273
REMARK  117  A    between atoms: _273  and  _274
REMARK  118  A    between atoms: _277  and  _279
REMARK  119  A    between atoms: _279  and  _280
REMARK  120  A    between atoms: _282  and  _284
REMARK  121  A    between atoms: _284  and  _285
REMARK  122  A    between atoms: _284  and  _287
REMARK  123  A    between atoms: _287  and  _288
REMARK  124  A    between atoms: _288  and  _289
REMARK  125  A    between atoms: _292  and  _294
REMARK  126  A    between atoms: _294  and  _295
REMARK  127  A    between atoms: _294  and  _297
REMARK  128  A    between atoms: _297  and  _298
REMARK  129  A    between atoms: _301  and  _303
REMARK  130  A    between atoms: _303  and  _304
REMARK  131  A    between atoms: _307  and  _309
REMARK  132  A    between atoms: _309  and  _310
REMARK  133  A    between atoms: _309  and  _312
REMARK  134  A    between atoms: _312  and  _313
REMARK  135  A    between atoms: _313  and  _436
REMARK  136  A    between atoms: _314  and  _316
REMARK  137  A    between atoms: _316  and  _317
REMARK  138  A    between atoms: _316  and  _319
REMARK  139  A    between atoms: _319  and  _320
REMARK  140  A    between atoms: _320  and  _321
REMARK  141  A    between atoms: _326  and  _328
REMARK  142  A    between atoms: _328  and  _329
REMARK  143  A    between atoms: _331  and  _333
REMARK  144  A    between atoms: _333  and  _334
REMARK  145  A    between atoms: _333  and  _336
REMARK  146  A    between atoms: _336  and  _337
REMARK  147  A    between atoms: _340  and  _342
REMARK  148  A    between atoms: _342  and  _343
REMARK  149  A    between atoms: _342  and  _345
REMARK  150  A    between atoms: _345  and  _346
REMARK  151  A    between atoms: _348  and  _350
REMARK  152  A    between atoms: _350  and  _351
REMARK  153  A    between atoms: _353  and  _355
REMARK  154  A    between atoms: _355  and  _356
REMARK  155  A    between atoms: _358  and  _360
REMARK  156  A    between atoms: _360  and  _361
REMARK  157  A    between atoms: _360  and  _363
REMARK  158  A    between atoms: _363  and  _364
REMARK  159  A    between atoms: _369  and  _371
REMARK  160  A    between atoms: _371  and  _372
REMARK  161  A    between atoms: _371  and  _374
REMARK  162  A    between atoms: _374  and  _375
REMARK  163  A    between atoms: _378  and  _380
REMARK  164  A    between atoms: _380  and  _381
REMARK  165  A    between atoms: _380  and  _383
REMARK  166  A    between atoms: _386  and  _388
REMARK  167  A    between atoms: _388  and  _389
REMARK  168  A    between atoms: _388  and  _391
REMARK  169  A    between atoms: _391  and  _392
REMARK  170  A    between atoms: _394  and  _396
REMARK  171  A    between atoms: _396  and  _397
REMARK  172  A    between atoms: _396  and  _399
REMARK  173  A    between atoms: _399  and  _400
REMARK  174  A    between atoms: _410  and  _412
REMARK  175  A    between atoms: _412  and  _413
REMARK  176  A    between atoms: _415  and  _417
REMARK  177  A    between atoms: _417  and  _418
REMARK  178  A    between atoms: _417  and  _420
REMARK  179  A    between atoms: _420  and  _421
REMARK  180  A    between atoms: _421  and  _422
REMARK  181  A    between atoms: _425  and  _427
REMARK  182  A    between atoms: _427  and  _428
REMARK  183  A    between atoms: _430  and  _432
REMARK  184  A    between atoms: _432  and  _433
REMARK  185  A    between atoms: _432  and  _435
REMARK  186  A    between atoms: _435  and  _436
REMARK  187  A    between atoms: _437  and  _439
REMARK  188  A    between atoms: _439  and  _440
REMARK  189  A    between atoms: _443  and  _445
REMARK  190  A    between atoms: _445  and  _446
REMARK  191  A    between atoms: _445  and  _448
REMARK  192  A    between atoms: _448  and  _449
REMARK  193  A    between atoms: _449  and  _450
REMARK  194  A    between atoms: _450  and  _451
REMARK  195  A    between atoms: _460  and  _462
REMARK  196  A    between atoms: _462  and  _463
REMARK  197  A    between atoms: _462  and  _465
REMARK  198  A    between atoms: _465  and  _466
REMARK  199  A    between atoms: _466  and  _467
REMARK  200  A    between atoms: _467  and  _468
REMARK  201  A    between atoms: _468  and  _469
REMARK  202  A    between atoms: _473  and  _475
REMARK  203  A    between atoms: _475  and  _476
REMARK  204  A    between atoms: _475  and  _478
REMARK  205  A    between atoms: _478  and  _479
REMARK  206  A    between atoms: _484  and  _485
REMARK  207  A    between atoms: _487  and  _489
REMARK  208  A    between atoms: _489  and  _490
REMARK  209  A    between atoms: _492  and  _494
REMARK  210  A    between atoms: _494  and  _495
REMARK  211  A    between atoms: _494  and  _497
REMARK  212  A    between atoms: _497  and  _498
REMARK  213  A    between atoms: _501  and  _503
REMARK  214  A    between atoms: _503  and  _504
REMARK  215  A    between atoms: _503  and  _506
REMARK  216  A    between atoms: _506  and  _507
REMARK  217  A    between atoms: _512  and  _513
REMARK  218  A    between atoms: _515  and  _517
REMARK  219  A    between atoms: _517  and  _518
REMARK  220  A    between atoms: _517  and  _520
REMARK  221  A    between atoms: _520  and  _521
REMARK                            x       y       z     vdW  Elec       q    Type
REMARK                         _______ _______ _______ _____ _____    ______ ____
ROOT
ATOM      1  O   HOH     1       7.226  65.099  -1.119  0.00  0.00    +0.000 OA
ENDROOT
TORSDOF 0
