REMARK  Name = ../refined-set-2016/1x8d/1x8d_pocket.pdb
REMARK  134 active torsions:
REMARK  status: ('A' for Active; 'I' for Inactive)
REMARK    1  A    between atoms: _1  and  _3
REMARK    2  A    between atoms: _3  and  _4
REMARK    3  A    between atoms: _3  and  _6
REMARK    4  A    between atoms: _6  and  _7
REMARK    5  A    between atoms: _13  and  _15
REMARK    6  A    between atoms: _15  and  _16
REMARK    7  A    between atoms: _15  and  _18
REMARK    8  A    between atoms: _18  and  _19
REMARK    9  A    between atoms: _19  and  _20
REMARK   10  A    between atoms: _22  and  _24
REMARK   11  A    between atoms: _24  and  _25
REMARK   12  A    between atoms: _24  and  _27
REMARK   13  A    between atoms: _27  and  _28
REMARK   14  A    between atoms: _28  and  _29
REMARK   15  A    between atoms: _34  and  _36
REMARK   16  A    between atoms: _36  and  _37
REMARK   17  A    between atoms: _36  and  _39
REMARK   18  A    between atoms: _39  and  _40
REMARK   19  A    between atoms: _45  and  _46
REMARK   20  A    between atoms: _48  and  _50
REMARK   21  A    between atoms: _50  and  _51
REMARK   22  A    between atoms: _50  and  _53
REMARK   23  A    between atoms: _53  and  _54
REMARK   24  A    between atoms: _54  and  _55
REMARK   25  A    between atoms: _55  and  _56
REMARK   26  A    between atoms: _65  and  _67
REMARK   27  A    between atoms: _67  and  _68
REMARK   28  A    between atoms: _67  and  _70
REMARK   29  A    between atoms: _70  and  _71
REMARK   30  A    between atoms: _76  and  _78
REMARK   31  A    between atoms: _78  and  _79
REMARK   32  A    between atoms: _78  and  _81
REMARK   33  A    between atoms: _81  and  _82
REMARK   34  A    between atoms: _85  and  _87
REMARK   35  A    between atoms: _87  and  _88
REMARK   36  A    between atoms: _87  and  _90
REMARK   37  A    between atoms: _90  and  _91
REMARK   38  A    between atoms: _101  and  _103
REMARK   39  A    between atoms: _103  and  _104
REMARK   40  A    between atoms: _103  and  _106
REMARK   41  A    between atoms: _106  and  _107
REMARK   42  A    between atoms: _110  and  _112
REMARK   43  A    between atoms: _112  and  _113
REMARK   44  A    between atoms: _112  and  _115
REMARK   45  A    between atoms: _115  and  _116
REMARK   46  A    between atoms: _116  and  _117
REMARK   47  A    between atoms: _120  and  _122
REMARK   48  A    between atoms: _122  and  _123
REMARK   49  A    between atoms: _122  and  _125
REMARK   50  A    between atoms: _125  and  _126
REMARK   51  A    between atoms: _129  and  _131
REMARK   52  A    between atoms: _131  and  _132
REMARK   53  A    between atoms: _131  and  _134
REMARK   54  A    between atoms: _134  and  _135
REMARK   55  A    between atoms: _140  and  _141
REMARK   56  A    between atoms: _143  and  _145
REMARK   57  A    between atoms: _145  and  _146
REMARK   58  A    between atoms: _145  and  _148
REMARK   59  A    between atoms: _148  and  _149
REMARK   60  A    between atoms: _152  and  _154
REMARK   61  A    between atoms: _154  and  _155
REMARK   62  A    between atoms: _154  and  _157
REMARK   63  A    between atoms: _157  and  _158
REMARK   64  A    between atoms: _161  and  _163
REMARK   65  A    between atoms: _163  and  _164
REMARK   66  A    between atoms: _167  and  _169
REMARK   67  A    between atoms: _169  and  _170
REMARK   68  A    between atoms: _169  and  _172
REMARK   69  A    between atoms: _175  and  _177
REMARK   70  A    between atoms: _177  and  _178
REMARK   71  A    between atoms: _177  and  _180
REMARK   72  A    between atoms: _180  and  _181
REMARK   73  A    between atoms: _191  and  _193
REMARK   74  A    between atoms: _193  and  _194
REMARK   75  A    between atoms: _193  and  _196
REMARK   76  A    between atoms: _199  and  _201
REMARK   77  A    between atoms: _201  and  _202
REMARK   78  A    between atoms: _201  and  _204
REMARK   79  A    between atoms: _206  and  _208
REMARK   80  A    between atoms: _208  and  _209
REMARK   81  A    between atoms: _208  and  _211
REMARK   82  A    between atoms: _211  and  _212
REMARK   83  A    between atoms: _222  and  _224
REMARK   84  A    between atoms: _224  and  _225
REMARK   85  A    between atoms: _224  and  _227
REMARK   86  A    between atoms: _227  and  _228
REMARK   87  A    between atoms: _238  and  _240
REMARK   88  A    between atoms: _240  and  _241
REMARK   89  A    between atoms: _240  and  _243
REMARK   90  A    between atoms: _243  and  _244
REMARK   91  A    between atoms: _244  and  _245
REMARK   92  A    between atoms: _245  and  _246
REMARK   93  A    between atoms: _246  and  _247
REMARK   94  A    between atoms: _251  and  _253
REMARK   95  A    between atoms: _253  and  _254
REMARK   96  A    between atoms: _253  and  _256
REMARK   97  A    between atoms: _256  and  _257
REMARK   98  A    between atoms: _257  and  _258
REMARK   99  A    between atoms: _260  and  _262
REMARK  100  A    between atoms: _262  and  _263
REMARK  101  A    between atoms: _262  and  _265
REMARK  102  A    between atoms: _265  and  _266
REMARK  103  A    between atoms: _269  and  _271
REMARK  104  A    between atoms: _271  and  _272
REMARK  105  A    between atoms: _271  and  _274
REMARK  106  A    between atoms: _277  and  _279
REMARK  107  A    between atoms: _279  and  _280
REMARK  108  A    between atoms: _279  and  _282
REMARK  109  A    between atoms: _282  and  _283
REMARK  110  A    between atoms: _283  and  _284
REMARK  111  A    between atoms: _286  and  _288
REMARK  112  A    between atoms: _288  and  _289
REMARK  113  A    between atoms: _288  and  _291
REMARK  114  A    between atoms: _291  and  _292
REMARK  115  A    between atoms: _297  and  _299
REMARK  116  A    between atoms: _299  and  _300
REMARK  117  A    between atoms: _299  and  _302
REMARK  118  A    between atoms: _302  and  _303
REMARK  119  A    between atoms: _306  and  _307
REMARK  120  A    between atoms: _312  and  _314
REMARK  121  A    between atoms: _314  and  _315
REMARK  122  A    between atoms: _314  and  _317
REMARK  123  A    between atoms: _317  and  _318
REMARK  124  A    between atoms: _320  and  _322
REMARK  125  A    between atoms: _322  and  _323
REMARK  126  A    between atoms: _322  and  _325
REMARK  127  A    between atoms: _328  and  _330
REMARK  128  A    between atoms: _330  and  _331
REMARK  129  A    between atoms: _330  and  _333
REMARK  130  A    between atoms: _333  and  _334
REMARK  131  A    between atoms: _340  and  _342
REMARK  132  A    between atoms: _342  and  _343
REMARK  133  A    between atoms: _342  and  _345
REMARK  134  A    between atoms: _345  and  _346
REMARK                            x       y       z     vdW  Elec       q    Type
REMARK                         _______ _______ _______ _____ _____    ______ ____
ROOT
ATOM      1  CB  PHE A   1      13.762  22.658   6.173  0.00  0.00    +0.051 C 
ENDROOT
BRANCH   1   2
ATOM      2  CG  PHE A   1      12.770  23.772   6.351  0.00  0.00    -0.020 A 
ATOM      3  CD2 PHE A   1      13.140  24.951   6.995  0.00  0.00    -0.004 A 
ATOM      4  CE2 PHE A   1      12.234  26.013   7.139  0.00  0.00    -0.000 A 
ATOM      5  CZ  PHE A   1      10.945  25.892   6.632  0.00  0.00    -0.000 A 
ATOM      6  CE1 PHE A   1      10.561  24.710   5.986  0.00  0.00    -0.000 A 
ATOM      7  CD1 PHE A   1      11.470  23.659   5.850  0.00  0.00    -0.004 A 
ENDBRANCH   1   2
BRANCH   1   8
ATOM      8  CA  PHE A   1      13.554  21.482   7.124  0.00  0.00    +0.137 C 
BRANCH   8   9
ATOM      9  N   PHE A   1      12.173  21.046   7.124  0.00  0.00    -0.239 NA
ATOM     10  H   PHE A   1      11.504  21.447   7.812  0.00  0.00    +0.142 HD
ENDBRANCH   8   9
BRANCH   8  11
ATOM     11  C   PHE A   1      13.918  21.881   8.531  0.00  0.00    +0.224 C 
ATOM     12  O   PHE A   1      13.043  22.061   9.382  0.00  0.00    -0.287 OA
ENDBRANCH   8  11
ENDBRANCH   1   8
TORSDOF 4
REMARK  Name = ../refined-set-2016/1x8d/1x8d_pocket.pdb
REMARK  134 active torsions:
REMARK  status: ('A' for Active; 'I' for Inactive)
REMARK    1  A    between atoms: _1  and  _3
REMARK    2  A    between atoms: _3  and  _4
REMARK    3  A    between atoms: _3  and  _6
REMARK    4  A    between atoms: _6  and  _7
REMARK    5  A    between atoms: _13  and  _15
REMARK    6  A    between atoms: _15  and  _16
REMARK    7  A    between atoms: _15  and  _18
REMARK    8  A    between atoms: _18  and  _19
REMARK    9  A    between atoms: _19  and  _20
REMARK   10  A    between atoms: _22  and  _24
REMARK   11  A    between atoms: _24  and  _25
REMARK   12  A    between atoms: _24  and  _27
REMARK   13  A    between atoms: _27  and  _28
REMARK   14  A    between atoms: _28  and  _29
REMARK   15  A    between atoms: _34  and  _36
REMARK   16  A    between atoms: _36  and  _37
REMARK   17  A    between atoms: _36  and  _39
REMARK   18  A    between atoms: _39  and  _40
REMARK   19  A    between atoms: _45  and  _46
REMARK   20  A    between atoms: _48  and  _50
REMARK   21  A    between atoms: _50  and  _51
REMARK   22  A    between atoms: _50  and  _53
REMARK   23  A    between atoms: _53  and  _54
REMARK   24  A    between atoms: _54  and  _55
REMARK   25  A    between atoms: _55  and  _56
REMARK   26  A    between atoms: _65  and  _67
REMARK   27  A    between atoms: _67  and  _68
REMARK   28  A    between atoms: _67  and  _70
REMARK   29  A    between atoms: _70  and  _71
REMARK   30  A    between atoms: _76  and  _78
REMARK   31  A    between atoms: _78  and  _79
REMARK   32  A    between atoms: _78  and  _81
REMARK   33  A    between atoms: _81  and  _82
REMARK   34  A    between atoms: _85  and  _87
REMARK   35  A    between atoms: _87  and  _88
REMARK   36  A    between atoms: _87  and  _90
REMARK   37  A    between atoms: _90  and  _91
REMARK   38  A    between atoms: _101  and  _103
REMARK   39  A    between atoms: _103  and  _104
REMARK   40  A    between atoms: _103  and  _106
REMARK   41  A    between atoms: _106  and  _107
REMARK   42  A    between atoms: _110  and  _112
REMARK   43  A    between atoms: _112  and  _113
REMARK   44  A    between atoms: _112  and  _115
REMARK   45  A    between atoms: _115  and  _116
REMARK   46  A    between atoms: _116  and  _117
REMARK   47  A    between atoms: _120  and  _122
REMARK   48  A    between atoms: _122  and  _123
REMARK   49  A    between atoms: _122  and  _125
REMARK   50  A    between atoms: _125  and  _126
REMARK   51  A    between atoms: _129  and  _131
REMARK   52  A    between atoms: _131  and  _132
REMARK   53  A    between atoms: _131  and  _134
REMARK   54  A    between atoms: _134  and  _135
REMARK   55  A    between atoms: _140  and  _141
REMARK   56  A    between atoms: _143  and  _145
REMARK   57  A    between atoms: _145  and  _146
REMARK   58  A    between atoms: _145  and  _148
REMARK   59  A    between atoms: _148  and  _149
REMARK   60  A    between atoms: _152  and  _154
REMARK   61  A    between atoms: _154  and  _155
REMARK   62  A    between atoms: _154  and  _157
REMARK   63  A    between atoms: _157  and  _158
REMARK   64  A    between atoms: _161  and  _163
REMARK   65  A    between atoms: _163  and  _164
REMARK   66  A    between atoms: _167  and  _169
REMARK   67  A    between atoms: _169  and  _170
REMARK   68  A    between atoms: _169  and  _172
REMARK   69  A    between atoms: _175  and  _177
REMARK   70  A    between atoms: _177  and  _178
REMARK   71  A    between atoms: _177  and  _180
REMARK   72  A    between atoms: _180  and  _181
REMARK   73  A    between atoms: _191  and  _193
REMARK   74  A    between atoms: _193  and  _194
REMARK   75  A    between atoms: _193  and  _196
REMARK   76  A    between atoms: _199  and  _201
REMARK   77  A    between atoms: _201  and  _202
REMARK   78  A    between atoms: _201  and  _204
REMARK   79  A    between atoms: _206  and  _208
REMARK   80  A    between atoms: _208  and  _209
REMARK   81  A    between atoms: _208  and  _211
REMARK   82  A    between atoms: _211  and  _212
REMARK   83  A    between atoms: _222  and  _224
REMARK   84  A    between atoms: _224  and  _225
REMARK   85  A    between atoms: _224  and  _227
REMARK   86  A    between atoms: _227  and  _228
REMARK   87  A    between atoms: _238  and  _240
REMARK   88  A    between atoms: _240  and  _241
REMARK   89  A    between atoms: _240  and  _243
REMARK   90  A    between atoms: _243  and  _244
REMARK   91  A    between atoms: _244  and  _245
REMARK   92  A    between atoms: _245  and  _246
REMARK   93  A    between atoms: _246  and  _247
REMARK   94  A    between atoms: _251  and  _253
REMARK   95  A    between atoms: _253  and  _254
REMARK   96  A    between atoms: _253  and  _256
REMARK   97  A    between atoms: _256  and  _257
REMARK   98  A    between atoms: _257  and  _258
REMARK   99  A    between atoms: _260  and  _262
REMARK  100  A    between atoms: _262  and  _263
REMARK  101  A    between atoms: _262  and  _265
REMARK  102  A    between atoms: _265  and  _266
REMARK  103  A    between atoms: _269  and  _271
REMARK  104  A    between atoms: _271  and  _272
REMARK  105  A    between atoms: _271  and  _274
REMARK  106  A    between atoms: _277  and  _279
REMARK  107  A    between atoms: _279  and  _280
REMARK  108  A    between atoms: _279  and  _282
REMARK  109  A    between atoms: _282  and  _283
REMARK  110  A    between atoms: _283  and  _284
REMARK  111  A    between atoms: _286  and  _288
REMARK  112  A    between atoms: _288  and  _289
REMARK  113  A    between atoms: _288  and  _291
REMARK  114  A    between atoms: _291  and  _292
REMARK  115  A    between atoms: _297  and  _299
REMARK  116  A    between atoms: _299  and  _300
REMARK  117  A    between atoms: _299  and  _302
REMARK  118  A    between atoms: _302  and  _303
REMARK  119  A    between atoms: _306  and  _307
REMARK  120  A    between atoms: _312  and  _314
REMARK  121  A    between atoms: _314  and  _315
REMARK  122  A    between atoms: _314  and  _317
REMARK  123  A    between atoms: _317  and  _318
REMARK  124  A    between atoms: _320  and  _322
REMARK  125  A    between atoms: _322  and  _323
REMARK  126  A    between atoms: _322  and  _325
REMARK  127  A    between atoms: _328  and  _330
REMARK  128  A    between atoms: _330  and  _331
REMARK  129  A    between atoms: _330  and  _333
REMARK  130  A    between atoms: _333  and  _334
REMARK  131  A    between atoms: _340  and  _342
REMARK  132  A    between atoms: _342  and  _343
REMARK  133  A    between atoms: _342  and  _345
REMARK  134  A    between atoms: _345  and  _346
REMARK                            x       y       z     vdW  Elec       q    Type
REMARK                         _______ _______ _______ _____ _____    ______ ____
ROOT
ATOM      1  C   MET A   1      17.885  25.760  12.354  0.00  0.00    +0.238 C 
ATOM      2  O   MET A   1      17.621  24.868  13.157  0.00  0.00    -0.274 OA
ATOM      3  N   GLN A   2      18.673  26.781  12.659  0.00  0.00    -0.298 N 
ATOM      4  H   GLN A   2      18.870  27.506  11.940  0.00  0.00    +0.150 HD
ENDROOT
BRANCH   1   5
ATOM      5  CA  MET A   1      17.295  25.727  10.950  0.00  0.00    +0.146 C 
BRANCH   5   6
ATOM      6  N   MET A   1      16.464  24.534  10.910  0.00  0.00    -0.238 NA
ATOM      7  H   MET A   1      15.734  24.403  11.639  0.00  0.00    +0.142 HD
ENDBRANCH   5   6
BRANCH   5   8
ATOM      8  CB  MET A   1      16.436  26.971  10.710  0.00  0.00    +0.038 C 
BRANCH   8   9
ATOM      9  CG  MET A   1      15.621  26.929   9.403  0.00  0.00    +0.060 C 
BRANCH   9  10
ATOM     10  SD  MET A   1      14.392  28.267   9.303  0.00  0.00    -0.139 S 
ATOM     11  CE  MET A   1      13.222  27.717  10.573  0.00  0.00    +0.069 C 
ENDBRANCH   9  10
ENDBRANCH   8   9
ENDBRANCH   5   8
ENDBRANCH   1   5
BRANCH   3  12
ATOM     12  CA  GLN A   2      19.272  26.908  13.990  0.00  0.00    +0.137 C 
BRANCH  12  13
ATOM     13  C   GLN A   2      18.841  28.232  14.602  0.00  0.00    +0.227 C 
ATOM     14  O   GLN A   2      18.346  29.106  13.901  0.00  0.00    -0.286 OA
ENDBRANCH  12  13
BRANCH  12  15
ATOM     15  CB  GLN A   2      20.798  26.920  13.897  0.00  0.00    +0.037 C 
BRANCH  15  16
ATOM     16  CG  GLN A   2      21.456  25.679  13.378  0.00  0.00    +0.087 C 
BRANCH  16  17
ATOM     17  CD  GLN A   2      22.926  25.915  13.125  0.00  0.00    +0.219 C 
ATOM     18  OE1 GLN A   2      23.671  26.266  14.033  0.00  0.00    -0.275 OA
ATOM     19  NE2 GLN A   2      23.351  25.740  11.883  0.00  0.00    -0.329 N 
ATOM     20 HE21 GLN A   2      24.351  25.901  11.648  0.00  0.00    +0.145 HD
ATOM     21 HE22 GLN A   2      22.685  25.441  11.143  0.00  0.00    +0.145 HD
ENDBRANCH  16  17
ENDBRANCH  15  16
ENDBRANCH  12  15
ENDBRANCH   3  12
TORSDOF 10
REMARK  Name = ../refined-set-2016/1x8d/1x8d_pocket.pdb
REMARK  134 active torsions:
REMARK  status: ('A' for Active; 'I' for Inactive)
REMARK    1  A    between atoms: _1  and  _3
REMARK    2  A    between atoms: _3  and  _4
REMARK    3  A    between atoms: _3  and  _6
REMARK    4  A    between atoms: _6  and  _7
REMARK    5  A    between atoms: _13  and  _15
REMARK    6  A    between atoms: _15  and  _16
REMARK    7  A    between atoms: _15  and  _18
REMARK    8  A    between atoms: _18  and  _19
REMARK    9  A    between atoms: _19  and  _20
REMARK   10  A    between atoms: _22  and  _24
REMARK   11  A    between atoms: _24  and  _25
REMARK   12  A    between atoms: _24  and  _27
REMARK   13  A    between atoms: _27  and  _28
REMARK   14  A    between atoms: _28  and  _29
REMARK   15  A    between atoms: _34  and  _36
REMARK   16  A    between atoms: _36  and  _37
REMARK   17  A    between atoms: _36  and  _39
REMARK   18  A    between atoms: _39  and  _40
REMARK   19  A    between atoms: _45  and  _46
REMARK   20  A    between atoms: _48  and  _50
REMARK   21  A    between atoms: _50  and  _51
REMARK   22  A    between atoms: _50  and  _53
REMARK   23  A    between atoms: _53  and  _54
REMARK   24  A    between atoms: _54  and  _55
REMARK   25  A    between atoms: _55  and  _56
REMARK   26  A    between atoms: _65  and  _67
REMARK   27  A    between atoms: _67  and  _68
REMARK   28  A    between atoms: _67  and  _70
REMARK   29  A    between atoms: _70  and  _71
REMARK   30  A    between atoms: _76  and  _78
REMARK   31  A    between atoms: _78  and  _79
REMARK   32  A    between atoms: _78  and  _81
REMARK   33  A    between atoms: _81  and  _82
REMARK   34  A    between atoms: _85  and  _87
REMARK   35  A    between atoms: _87  and  _88
REMARK   36  A    between atoms: _87  and  _90
REMARK   37  A    between atoms: _90  and  _91
REMARK   38  A    between atoms: _101  and  _103
REMARK   39  A    between atoms: _103  and  _104
REMARK   40  A    between atoms: _103  and  _106
REMARK   41  A    between atoms: _106  and  _107
REMARK   42  A    between atoms: _110  and  _112
REMARK   43  A    between atoms: _112  and  _113
REMARK   44  A    between atoms: _112  and  _115
REMARK   45  A    between atoms: _115  and  _116
REMARK   46  A    between atoms: _116  and  _117
REMARK   47  A    between atoms: _120  and  _122
REMARK   48  A    between atoms: _122  and  _123
REMARK   49  A    between atoms: _122  and  _125
REMARK   50  A    between atoms: _125  and  _126
REMARK   51  A    between atoms: _129  and  _131
REMARK   52  A    between atoms: _131  and  _132
REMARK   53  A    between atoms: _131  and  _134
REMARK   54  A    between atoms: _134  and  _135
REMARK   55  A    between atoms: _140  and  _141
REMARK   56  A    between atoms: _143  and  _145
REMARK   57  A    between atoms: _145  and  _146
REMARK   58  A    between atoms: _145  and  _148
REMARK   59  A    between atoms: _148  and  _149
REMARK   60  A    between atoms: _152  and  _154
REMARK   61  A    between atoms: _154  and  _155
REMARK   62  A    between atoms: _154  and  _157
REMARK   63  A    between atoms: _157  and  _158
REMARK   64  A    between atoms: _161  and  _163
REMARK   65  A    between atoms: _163  and  _164
REMARK   66  A    between atoms: _167  and  _169
REMARK   67  A    between atoms: _169  and  _170
REMARK   68  A    between atoms: _169  and  _172
REMARK   69  A    between atoms: _175  and  _177
REMARK   70  A    between atoms: _177  and  _178
REMARK   71  A    between atoms: _177  and  _180
REMARK   72  A    between atoms: _180  and  _181
REMARK   73  A    between atoms: _191  and  _193
REMARK   74  A    between atoms: _193  and  _194
REMARK   75  A    between atoms: _193  and  _196
REMARK   76  A    between atoms: _199  and  _201
REMARK   77  A    between atoms: _201  and  _202
REMARK   78  A    between atoms: _201  and  _204
REMARK   79  A    between atoms: _206  and  _208
REMARK   80  A    between atoms: _208  and  _209
REMARK   81  A    between atoms: _208  and  _211
REMARK   82  A    between atoms: _211  and  _212
REMARK   83  A    between atoms: _222  and  _224
REMARK   84  A    between atoms: _224  and  _225
REMARK   85  A    between atoms: _224  and  _227
REMARK   86  A    between atoms: _227  and  _228
REMARK   87  A    between atoms: _238  and  _240
REMARK   88  A    between atoms: _240  and  _241
REMARK   89  A    between atoms: _240  and  _243
REMARK   90  A    between atoms: _243  and  _244
REMARK   91  A    between atoms: _244  and  _245
REMARK   92  A    between atoms: _245  and  _246
REMARK   93  A    between atoms: _246  and  _247
REMARK   94  A    between atoms: _251  and  _253
REMARK   95  A    between atoms: _253  and  _254
REMARK   96  A    between atoms: _253  and  _256
REMARK   97  A    between atoms: _256  and  _257
REMARK   98  A    between atoms: _257  and  _258
REMARK   99  A    between atoms: _260  and  _262
REMARK  100  A    between atoms: _262  and  _263
REMARK  101  A    between atoms: _262  and  _265
REMARK  102  A    between atoms: _265  and  _266
REMARK  103  A    between atoms: _269  and  _271
REMARK  104  A    between atoms: _271  and  _272
REMARK  105  A    between atoms: _271  and  _274
REMARK  106  A    between atoms: _277  and  _279
REMARK  107  A    between atoms: _279  and  _280
REMARK  108  A    between atoms: _279  and  _282
REMARK  109  A    between atoms: _282  and  _283
REMARK  110  A    between atoms: _283  and  _284
REMARK  111  A    between atoms: _286  and  _288
REMARK  112  A    between atoms: _288  and  _289
REMARK  113  A    between atoms: _288  and  _291
REMARK  114  A    between atoms: _291  and  _292
REMARK  115  A    between atoms: _297  and  _299
REMARK  116  A    between atoms: _299  and  _300
REMARK  117  A    between atoms: _299  and  _302
REMARK  118  A    between atoms: _302  and  _303
REMARK  119  A    between atoms: _306  and  _307
REMARK  120  A    between atoms: _312  and  _314
REMARK  121  A    between atoms: _314  and  _315
REMARK  122  A    between atoms: _314  and  _317
REMARK  123  A    between atoms: _317  and  _318
REMARK  124  A    between atoms: _320  and  _322
REMARK  125  A    between atoms: _322  and  _323
REMARK  126  A    between atoms: _322  and  _325
REMARK  127  A    between atoms: _328  and  _330
REMARK  128  A    between atoms: _330  and  _331
REMARK  129  A    between atoms: _330  and  _333
REMARK  130  A    between atoms: _333  and  _334
REMARK  131  A    between atoms: _340  and  _342
REMARK  132  A    between atoms: _342  and  _343
REMARK  133  A    between atoms: _342  and  _345
REMARK  134  A    between atoms: _345  and  _346
REMARK                            x       y       z     vdW  Elec       q    Type
REMARK                         _______ _______ _______ _____ _____    ______ ____
ROOT
ATOM      1  CG  TYR A   1      13.195  32.120  16.911  0.00  0.00    -0.020 A 
ATOM      2  CD2 TYR A   1      12.208  31.131  16.902  0.00  0.00    -0.001 A 
ATOM      3  CE2 TYR A   1      11.814  30.504  15.716  0.00  0.00    +0.036 A 
ATOM      4  CZ  TYR A   1      12.410  30.866  14.512  0.00  0.00    +0.134 A 
ATOM      5  CE1 TYR A   1      13.401  31.847  14.495  0.00  0.00    +0.036 A 
ATOM      6  CD1 TYR A   1      13.786  32.466  15.694  0.00  0.00    -0.001 A 
ENDROOT
BRANCH   4   7
ATOM      7  OH  TYR A   1      12.001  30.265  13.326  0.00  0.00    -0.506 OA
ATOM      8  HH  TYR A   1      11.642  30.956  12.714  0.00  0.00    +0.292 HD
ENDBRANCH   4   7
BRANCH   1   9
ATOM      9  CB  TYR A   1      13.571  32.841  18.202  0.00  0.00    +0.051 C 
BRANCH   9  10
ATOM     10  CA  TYR A   1      12.741  34.105  18.463  0.00  0.00    +0.137 C 
BRANCH  10  11
ATOM     11  N   TYR A   1      13.111  34.739  19.721  0.00  0.00    -0.239 NA
ATOM     12  H   TYR A   1      13.810  34.290  20.347  0.00  0.00    +0.142 HD
ENDBRANCH  10  11
BRANCH  10  13
ATOM     13  C   TYR A   1      11.264  33.760  18.500  0.00  0.00    +0.224 C 
ATOM     14  O   TYR A   1      10.538  34.045  17.556  0.00  0.00    -0.287 OA
ENDBRANCH  10  13
ENDBRANCH   9  10
ENDBRANCH   1   9
TORSDOF 5
REMARK  Name = ../refined-set-2016/1x8d/1x8d_pocket.pdb
REMARK  134 active torsions:
REMARK  status: ('A' for Active; 'I' for Inactive)
REMARK    1  A    between atoms: _1  and  _3
REMARK    2  A    between atoms: _3  and  _4
REMARK    3  A    between atoms: _3  and  _6
REMARK    4  A    between atoms: _6  and  _7
REMARK    5  A    between atoms: _13  and  _15
REMARK    6  A    between atoms: _15  and  _16
REMARK    7  A    between atoms: _15  and  _18
REMARK    8  A    between atoms: _18  and  _19
REMARK    9  A    between atoms: _19  and  _20
REMARK   10  A    between atoms: _22  and  _24
REMARK   11  A    between atoms: _24  and  _25
REMARK   12  A    between atoms: _24  and  _27
REMARK   13  A    between atoms: _27  and  _28
REMARK   14  A    between atoms: _28  and  _29
REMARK   15  A    between atoms: _34  and  _36
REMARK   16  A    between atoms: _36  and  _37
REMARK   17  A    between atoms: _36  and  _39
REMARK   18  A    between atoms: _39  and  _40
REMARK   19  A    between atoms: _45  and  _46
REMARK   20  A    between atoms: _48  and  _50
REMARK   21  A    between atoms: _50  and  _51
REMARK   22  A    between atoms: _50  and  _53
REMARK   23  A    between atoms: _53  and  _54
REMARK   24  A    between atoms: _54  and  _55
REMARK   25  A    between atoms: _55  and  _56
REMARK   26  A    between atoms: _65  and  _67
REMARK   27  A    between atoms: _67  and  _68
REMARK   28  A    between atoms: _67  and  _70
REMARK   29  A    between atoms: _70  and  _71
REMARK   30  A    between atoms: _76  and  _78
REMARK   31  A    between atoms: _78  and  _79
REMARK   32  A    between atoms: _78  and  _81
REMARK   33  A    between atoms: _81  and  _82
REMARK   34  A    between atoms: _85  and  _87
REMARK   35  A    between atoms: _87  and  _88
REMARK   36  A    between atoms: _87  and  _90
REMARK   37  A    between atoms: _90  and  _91
REMARK   38  A    between atoms: _101  and  _103
REMARK   39  A    between atoms: _103  and  _104
REMARK   40  A    between atoms: _103  and  _106
REMARK   41  A    between atoms: _106  and  _107
REMARK   42  A    between atoms: _110  and  _112
REMARK   43  A    between atoms: _112  and  _113
REMARK   44  A    between atoms: _112  and  _115
REMARK   45  A    between atoms: _115  and  _116
REMARK   46  A    between atoms: _116  and  _117
REMARK   47  A    between atoms: _120  and  _122
REMARK   48  A    between atoms: _122  and  _123
REMARK   49  A    between atoms: _122  and  _125
REMARK   50  A    between atoms: _125  and  _126
REMARK   51  A    between atoms: _129  and  _131
REMARK   52  A    between atoms: _131  and  _132
REMARK   53  A    between atoms: _131  and  _134
REMARK   54  A    between atoms: _134  and  _135
REMARK   55  A    between atoms: _140  and  _141
REMARK   56  A    between atoms: _143  and  _145
REMARK   57  A    between atoms: _145  and  _146
REMARK   58  A    between atoms: _145  and  _148
REMARK   59  A    between atoms: _148  and  _149
REMARK   60  A    between atoms: _152  and  _154
REMARK   61  A    between atoms: _154  and  _155
REMARK   62  A    between atoms: _154  and  _157
REMARK   63  A    between atoms: _157  and  _158
REMARK   64  A    between atoms: _161  and  _163
REMARK   65  A    between atoms: _163  and  _164
REMARK   66  A    between atoms: _167  and  _169
REMARK   67  A    between atoms: _169  and  _170
REMARK   68  A    between atoms: _169  and  _172
REMARK   69  A    between atoms: _175  and  _177
REMARK   70  A    between atoms: _177  and  _178
REMARK   71  A    between atoms: _177  and  _180
REMARK   72  A    between atoms: _180  and  _181
REMARK   73  A    between atoms: _191  and  _193
REMARK   74  A    between atoms: _193  and  _194
REMARK   75  A    between atoms: _193  and  _196
REMARK   76  A    between atoms: _199  and  _201
REMARK   77  A    between atoms: _201  and  _202
REMARK   78  A    between atoms: _201  and  _204
REMARK   79  A    between atoms: _206  and  _208
REMARK   80  A    between atoms: _208  and  _209
REMARK   81  A    between atoms: _208  and  _211
REMARK   82  A    between atoms: _211  and  _212
REMARK   83  A    between atoms: _222  and  _224
REMARK   84  A    between atoms: _224  and  _225
REMARK   85  A    between atoms: _224  and  _227
REMARK   86  A    between atoms: _227  and  _228
REMARK   87  A    between atoms: _238  and  _240
REMARK   88  A    between atoms: _240  and  _241
REMARK   89  A    between atoms: _240  and  _243
REMARK   90  A    between atoms: _243  and  _244
REMARK   91  A    between atoms: _244  and  _245
REMARK   92  A    between atoms: _245  and  _246
REMARK   93  A    between atoms: _246  and  _247
REMARK   94  A    between atoms: _251  and  _253
REMARK   95  A    between atoms: _253  and  _254
REMARK   96  A    between atoms: _253  and  _256
REMARK   97  A    between atoms: _256  and  _257
REMARK   98  A    between atoms: _257  and  _258
REMARK   99  A    between atoms: _260  and  _262
REMARK  100  A    between atoms: _262  and  _263
REMARK  101  A    between atoms: _262  and  _265
REMARK  102  A    between atoms: _265  and  _266
REMARK  103  A    between atoms: _269  and  _271
REMARK  104  A    between atoms: _271  and  _272
REMARK  105  A    between atoms: _271  and  _274
REMARK  106  A    between atoms: _277  and  _279
REMARK  107  A    between atoms: _279  and  _280
REMARK  108  A    between atoms: _279  and  _282
REMARK  109  A    between atoms: _282  and  _283
REMARK  110  A    between atoms: _283  and  _284
REMARK  111  A    between atoms: _286  and  _288
REMARK  112  A    between atoms: _288  and  _289
REMARK  113  A    between atoms: _288  and  _291
REMARK  114  A    between atoms: _291  and  _292
REMARK  115  A    between atoms: _297  and  _299
REMARK  116  A    between atoms: _299  and  _300
REMARK  117  A    between atoms: _299  and  _302
REMARK  118  A    between atoms: _302  and  _303
REMARK  119  A    between atoms: _306  and  _307
REMARK  120  A    between atoms: _312  and  _314
REMARK  121  A    between atoms: _314  and  _315
REMARK  122  A    between atoms: _314  and  _317
REMARK  123  A    between atoms: _317  and  _318
REMARK  124  A    between atoms: _320  and  _322
REMARK  125  A    between atoms: _322  and  _323
REMARK  126  A    between atoms: _322  and  _325
REMARK  127  A    between atoms: _328  and  _330
REMARK  128  A    between atoms: _330  and  _331
REMARK  129  A    between atoms: _330  and  _333
REMARK  130  A    between atoms: _333  and  _334
REMARK  131  A    between atoms: _340  and  _342
REMARK  132  A    between atoms: _342  and  _343
REMARK  133  A    between atoms: _342  and  _345
REMARK  134  A    between atoms: _345  and  _346
REMARK                            x       y       z     vdW  Elec       q    Type
REMARK                         _______ _______ _______ _____ _____    ______ ____
ROOT
ATOM      1  CA  ARG A   1       8.764  37.380  16.952  0.00  0.00    +0.145 C 
ENDROOT
BRANCH   1   2
ATOM      2  C   ARG A   1       7.786  36.646  16.039  0.00  0.00    +0.238 C 
ATOM      3  N   HIS A   2       7.371  35.443  16.423  0.00  0.00    -0.298 N 
ATOM      4  H   HIS A   2       7.713  35.033  17.316  0.00  0.00    +0.150 HD
ATOM      5  O   ARG A   1       7.401  37.165  14.997  0.00  0.00    -0.274 OA
BRANCH   3   6
ATOM      6  CA  HIS A   2       6.433  34.699  15.587  0.00  0.00    +0.143 C 
BRANCH   6   7
ATOM      7  C   HIS A   2       5.016  34.689  16.141  0.00  0.00    +0.227 C 
ATOM      8  O   HIS A   2       4.157  33.951  15.658  0.00  0.00    -0.286 OA
ENDBRANCH   6   7
BRANCH   6   9
ATOM      9  CB  HIS A   2       6.915  33.261  15.386  0.00  0.00    +0.075 C 
BRANCH   9  10
ATOM     10  CG  HIS A   2       8.177  33.157  14.590  0.00  0.00    +0.082 A 
ATOM     11  ND1 HIS A   2       9.394  33.598  15.064  0.00  0.00    -0.227 NA
ATOM     12  CE1 HIS A   2      10.315  33.427  14.133  0.00  0.00    +0.199 A 
ATOM     13  NE2 HIS A   2       9.740  32.889  13.073  0.00  0.00    -0.221 NA
ATOM     14  CD2 HIS A   2       8.404  32.708  13.333  0.00  0.00    +0.115 A 
ENDBRANCH   9  10
ENDBRANCH   6   9
ENDBRANCH   3   6
ENDBRANCH   1   2
BRANCH   1  15
ATOM     15  N   ARG A   1       8.839  36.801  18.292  0.00  0.00    -0.238 NA
ATOM     16  H   ARG A   1       9.719  36.341  18.600  0.00  0.00    +0.142 HD
ENDBRANCH   1  15
BRANCH   1  17
ATOM     17  CB  ARG A   1      10.153  37.415  16.300  0.00  0.00    +0.030 C 
BRANCH  17  18
ATOM     18  CG  ARG A   1      11.164  38.320  17.012  0.00  0.00    +0.045 C 
BRANCH  18  19
ATOM     19  CD  ARG A   1      12.453  38.436  16.214  0.00  0.00    +0.174 C 
BRANCH  19  20
ATOM     20  NE  ARG A   1      13.416  39.363  16.812  0.00  0.00    -0.265 N 
ATOM     21  HE  ARG A   1      13.205  39.750  17.754  0.00  0.00    +0.259 HD
ATOM     22  CZ  ARG A   1      14.547  39.739  16.217  0.00  0.00    +0.342 C 
ATOM     23  NH2 ARG A   1      15.386  40.584  16.826  0.00  0.00    -0.292 N 
ATOM     24 HH21 ARG A   1      15.158  40.953  17.771  0.00  0.00    +0.255 HD
ATOM     25 HH22 ARG A   1      16.267  40.872  16.354  0.00  0.00    +0.255 HD
ATOM     26  NH1 ARG A   1      14.841  39.264  15.007  0.00  0.00    -0.292 N 
ATOM     27 HH11 ARG A   1      14.190  38.605  14.535  0.00  0.00    +0.255 HD
ATOM     28 HH12 ARG A   1      15.722  39.552  14.535  0.00  0.00    +0.255 HD
ENDBRANCH  19  20
ENDBRANCH  18  19
ENDBRANCH  17  18
ENDBRANCH   1  17
TORSDOF 10
REMARK  Name = ../refined-set-2016/1x8d/1x8d_pocket.pdb
REMARK  134 active torsions:
REMARK  status: ('A' for Active; 'I' for Inactive)
REMARK    1  A    between atoms: _1  and  _3
REMARK    2  A    between atoms: _3  and  _4
REMARK    3  A    between atoms: _3  and  _6
REMARK    4  A    between atoms: _6  and  _7
REMARK    5  A    between atoms: _13  and  _15
REMARK    6  A    between atoms: _15  and  _16
REMARK    7  A    between atoms: _15  and  _18
REMARK    8  A    between atoms: _18  and  _19
REMARK    9  A    between atoms: _19  and  _20
REMARK   10  A    between atoms: _22  and  _24
REMARK   11  A    between atoms: _24  and  _25
REMARK   12  A    between atoms: _24  and  _27
REMARK   13  A    between atoms: _27  and  _28
REMARK   14  A    between atoms: _28  and  _29
REMARK   15  A    between atoms: _34  and  _36
REMARK   16  A    between atoms: _36  and  _37
REMARK   17  A    between atoms: _36  and  _39
REMARK   18  A    between atoms: _39  and  _40
REMARK   19  A    between atoms: _45  and  _46
REMARK   20  A    between atoms: _48  and  _50
REMARK   21  A    between atoms: _50  and  _51
REMARK   22  A    between atoms: _50  and  _53
REMARK   23  A    between atoms: _53  and  _54
REMARK   24  A    between atoms: _54  and  _55
REMARK   25  A    between atoms: _55  and  _56
REMARK   26  A    between atoms: _65  and  _67
REMARK   27  A    between atoms: _67  and  _68
REMARK   28  A    between atoms: _67  and  _70
REMARK   29  A    between atoms: _70  and  _71
REMARK   30  A    between atoms: _76  and  _78
REMARK   31  A    between atoms: _78  and  _79
REMARK   32  A    between atoms: _78  and  _81
REMARK   33  A    between atoms: _81  and  _82
REMARK   34  A    between atoms: _85  and  _87
REMARK   35  A    between atoms: _87  and  _88
REMARK   36  A    between atoms: _87  and  _90
REMARK   37  A    between atoms: _90  and  _91
REMARK   38  A    between atoms: _101  and  _103
REMARK   39  A    between atoms: _103  and  _104
REMARK   40  A    between atoms: _103  and  _106
REMARK   41  A    between atoms: _106  and  _107
REMARK   42  A    between atoms: _110  and  _112
REMARK   43  A    between atoms: _112  and  _113
REMARK   44  A    between atoms: _112  and  _115
REMARK   45  A    between atoms: _115  and  _116
REMARK   46  A    between atoms: _116  and  _117
REMARK   47  A    between atoms: _120  and  _122
REMARK   48  A    between atoms: _122  and  _123
REMARK   49  A    between atoms: _122  and  _125
REMARK   50  A    between atoms: _125  and  _126
REMARK   51  A    between atoms: _129  and  _131
REMARK   52  A    between atoms: _131  and  _132
REMARK   53  A    between atoms: _131  and  _134
REMARK   54  A    between atoms: _134  and  _135
REMARK   55  A    between atoms: _140  and  _141
REMARK   56  A    between atoms: _143  and  _145
REMARK   57  A    between atoms: _145  and  _146
REMARK   58  A    between atoms: _145  and  _148
REMARK   59  A    between atoms: _148  and  _149
REMARK   60  A    between atoms: _152  and  _154
REMARK   61  A    between atoms: _154  and  _155
REMARK   62  A    between atoms: _154  and  _157
REMARK   63  A    between atoms: _157  and  _158
REMARK   64  A    between atoms: _161  and  _163
REMARK   65  A    between atoms: _163  and  _164
REMARK   66  A    between atoms: _167  and  _169
REMARK   67  A    between atoms: _169  and  _170
REMARK   68  A    between atoms: _169  and  _172
REMARK   69  A    between atoms: _175  and  _177
REMARK   70  A    between atoms: _177  and  _178
REMARK   71  A    between atoms: _177  and  _180
REMARK   72  A    between atoms: _180  and  _181
REMARK   73  A    between atoms: _191  and  _193
REMARK   74  A    between atoms: _193  and  _194
REMARK   75  A    between atoms: _193  and  _196
REMARK   76  A    between atoms: _199  and  _201
REMARK   77  A    between atoms: _201  and  _202
REMARK   78  A    between atoms: _201  and  _204
REMARK   79  A    between atoms: _206  and  _208
REMARK   80  A    between atoms: _208  and  _209
REMARK   81  A    between atoms: _208  and  _211
REMARK   82  A    between atoms: _211  and  _212
REMARK   83  A    between atoms: _222  and  _224
REMARK   84  A    between atoms: _224  and  _225
REMARK   85  A    between atoms: _224  and  _227
REMARK   86  A    between atoms: _227  and  _228
REMARK   87  A    between atoms: _238  and  _240
REMARK   88  A    between atoms: _240  and  _241
REMARK   89  A    between atoms: _240  and  _243
REMARK   90  A    between atoms: _243  and  _244
REMARK   91  A    between atoms: _244  and  _245
REMARK   92  A    between atoms: _245  and  _246
REMARK   93  A    between atoms: _246  and  _247
REMARK   94  A    between atoms: _251  and  _253
REMARK   95  A    between atoms: _253  and  _254
REMARK   96  A    between atoms: _253  and  _256
REMARK   97  A    between atoms: _256  and  _257
REMARK   98  A    between atoms: _257  and  _258
REMARK   99  A    between atoms: _260  and  _262
REMARK  100  A    between atoms: _262  and  _263
REMARK  101  A    between atoms: _262  and  _265
REMARK  102  A    between atoms: _265  and  _266
REMARK  103  A    between atoms: _269  and  _271
REMARK  104  A    between atoms: _271  and  _272
REMARK  105  A    between atoms: _271  and  _274
REMARK  106  A    between atoms: _277  and  _279
REMARK  107  A    between atoms: _279  and  _280
REMARK  108  A    between atoms: _279  and  _282
REMARK  109  A    between atoms: _282  and  _283
REMARK  110  A    between atoms: _283  and  _284
REMARK  111  A    between atoms: _286  and  _288
REMARK  112  A    between atoms: _288  and  _289
REMARK  113  A    between atoms: _288  and  _291
REMARK  114  A    between atoms: _291  and  _292
REMARK  115  A    between atoms: _297  and  _299
REMARK  116  A    between atoms: _299  and  _300
REMARK  117  A    between atoms: _299  and  _302
REMARK  118  A    between atoms: _302  and  _303
REMARK  119  A    between atoms: _306  and  _307
REMARK  120  A    between atoms: _312  and  _314
REMARK  121  A    between atoms: _314  and  _315
REMARK  122  A    between atoms: _314  and  _317
REMARK  123  A    between atoms: _317  and  _318
REMARK  124  A    between atoms: _320  and  _322
REMARK  125  A    between atoms: _322  and  _323
REMARK  126  A    between atoms: _322  and  _325
REMARK  127  A    between atoms: _328  and  _330
REMARK  128  A    between atoms: _330  and  _331
REMARK  129  A    between atoms: _330  and  _333
REMARK  130  A    between atoms: _333  and  _334
REMARK  131  A    between atoms: _340  and  _342
REMARK  132  A    between atoms: _342  and  _343
REMARK  133  A    between atoms: _342  and  _345
REMARK  134  A    between atoms: _345  and  _346
REMARK                            x       y       z     vdW  Elec       q    Type
REMARK                         _______ _______ _______ _____ _____    ______ ____
ROOT
ATOM      1  CA  TRP A   2       4.291  40.498  10.341  0.00  0.00    +0.141 C 
ENDROOT
BRANCH   1   4
ATOM      2  C   ILE A   1       4.081  38.595  11.813  0.00  0.00    +0.238 C 
ATOM      3  O   ILE A   1       2.901  38.889  12.037  0.00  0.00    -0.274 OA
ATOM      4  N   TRP A   2       4.852  39.325  11.013  0.00  0.00    -0.298 N 
ATOM      5  H   TRP A   2       5.848  39.064  10.866  0.00  0.00    +0.150 HD
BRANCH   2   6
ATOM      6  CA  ILE A   1       4.704  37.373  12.494  0.00  0.00    +0.145 C 
BRANCH   6   7
ATOM      7  N   ILE A   1       3.709  36.938  13.470  0.00  0.00    -0.238 NA
ATOM      8  H   ILE A   1       3.104  36.119  13.258  0.00  0.00    +0.142 HD
ENDBRANCH   6   7
BRANCH   6   9
ATOM      9  CB  ILE A   1       4.992  36.281  11.425  0.00  0.00    +0.025 C 
ATOM     10  CG2 ILE A   1       5.674  35.077  12.062  0.00  0.00    +0.002 C 
BRANCH   9  11
ATOM     11  CG1 ILE A   1       3.693  35.833  10.761  0.00  0.00    +0.002 C 
ATOM     12  CD1 ILE A   1       3.917  34.949   9.550  0.00  0.00    +0.000 C 
ENDBRANCH   9  11
ENDBRANCH   6   9
ENDBRANCH   2   6
ENDBRANCH   1   4
BRANCH   1  13
ATOM     13  C   TRP A   2       3.105  40.090   9.480  0.00  0.00    +0.227 C 
ATOM     14  O   TRP A   2       3.160  39.070   8.779  0.00  0.00    -0.286 OA
ENDBRANCH   1  13
BRANCH   1  15
ATOM     15  CB  TRP A   2       5.321  41.172   9.434  0.00  0.00    +0.056 C 
BRANCH  15  16
ATOM     16  CG  TRP A   2       6.573  41.626  10.098  0.00  0.00    -0.002 A 
ATOM     17  CD1 TRP A   2       6.753  41.934  11.419  0.00  0.00    +0.068 A 
ATOM     18  NE1 TRP A   2       8.045  42.352  11.629  0.00  0.00    -0.352 N 
ATOM     19  HE1 TRP A   2       8.444  42.643  12.544  0.00  0.00    +0.166 HD
ATOM     20  CE2 TRP A   2       8.723  42.324  10.438  0.00  0.00    +0.056 A 
ATOM     21  CZ2 TRP A   2      10.050  42.661  10.143  0.00  0.00    +0.017 A 
ATOM     22  CH2 TRP A   2      10.467  42.537   8.839  0.00  0.00    +0.001 A 
ATOM     23  CZ3 TRP A   2       9.600  42.089   7.836  0.00  0.00    +0.000 A 
ATOM     24  CE3 TRP A   2       8.277  41.753   8.127  0.00  0.00    +0.001 A 
ATOM     25  CD2 TRP A   2       7.826  41.871   9.452  0.00  0.00    +0.013 A 
ENDBRANCH  15  16
ENDBRANCH   1  15
TORSDOF 8
REMARK  Name = ../refined-set-2016/1x8d/1x8d_pocket.pdb
REMARK  134 active torsions:
REMARK  status: ('A' for Active; 'I' for Inactive)
REMARK    1  A    between atoms: _1  and  _3
REMARK    2  A    between atoms: _3  and  _4
REMARK    3  A    between atoms: _3  and  _6
REMARK    4  A    between atoms: _6  and  _7
REMARK    5  A    between atoms: _13  and  _15
REMARK    6  A    between atoms: _15  and  _16
REMARK    7  A    between atoms: _15  and  _18
REMARK    8  A    between atoms: _18  and  _19
REMARK    9  A    between atoms: _19  and  _20
REMARK   10  A    between atoms: _22  and  _24
REMARK   11  A    between atoms: _24  and  _25
REMARK   12  A    between atoms: _24  and  _27
REMARK   13  A    between atoms: _27  and  _28
REMARK   14  A    between atoms: _28  and  _29
REMARK   15  A    between atoms: _34  and  _36
REMARK   16  A    between atoms: _36  and  _37
REMARK   17  A    between atoms: _36  and  _39
REMARK   18  A    between atoms: _39  and  _40
REMARK   19  A    between atoms: _45  and  _46
REMARK   20  A    between atoms: _48  and  _50
REMARK   21  A    between atoms: _50  and  _51
REMARK   22  A    between atoms: _50  and  _53
REMARK   23  A    between atoms: _53  and  _54
REMARK   24  A    between atoms: _54  and  _55
REMARK   25  A    between atoms: _55  and  _56
REMARK   26  A    between atoms: _65  and  _67
REMARK   27  A    between atoms: _67  and  _68
REMARK   28  A    between atoms: _67  and  _70
REMARK   29  A    between atoms: _70  and  _71
REMARK   30  A    between atoms: _76  and  _78
REMARK   31  A    between atoms: _78  and  _79
REMARK   32  A    between atoms: _78  and  _81
REMARK   33  A    between atoms: _81  and  _82
REMARK   34  A    between atoms: _85  and  _87
REMARK   35  A    between atoms: _87  and  _88
REMARK   36  A    between atoms: _87  and  _90
REMARK   37  A    between atoms: _90  and  _91
REMARK   38  A    between atoms: _101  and  _103
REMARK   39  A    between atoms: _103  and  _104
REMARK   40  A    between atoms: _103  and  _106
REMARK   41  A    between atoms: _106  and  _107
REMARK   42  A    between atoms: _110  and  _112
REMARK   43  A    between atoms: _112  and  _113
REMARK   44  A    between atoms: _112  and  _115
REMARK   45  A    between atoms: _115  and  _116
REMARK   46  A    between atoms: _116  and  _117
REMARK   47  A    between atoms: _120  and  _122
REMARK   48  A    between atoms: _122  and  _123
REMARK   49  A    between atoms: _122  and  _125
REMARK   50  A    between atoms: _125  and  _126
REMARK   51  A    between atoms: _129  and  _131
REMARK   52  A    between atoms: _131  and  _132
REMARK   53  A    between atoms: _131  and  _134
REMARK   54  A    between atoms: _134  and  _135
REMARK   55  A    between atoms: _140  and  _141
REMARK   56  A    between atoms: _143  and  _145
REMARK   57  A    between atoms: _145  and  _146
REMARK   58  A    between atoms: _145  and  _148
REMARK   59  A    between atoms: _148  and  _149
REMARK   60  A    between atoms: _152  and  _154
REMARK   61  A    between atoms: _154  and  _155
REMARK   62  A    between atoms: _154  and  _157
REMARK   63  A    between atoms: _157  and  _158
REMARK   64  A    between atoms: _161  and  _163
REMARK   65  A    between atoms: _163  and  _164
REMARK   66  A    between atoms: _167  and  _169
REMARK   67  A    between atoms: _169  and  _170
REMARK   68  A    between atoms: _169  and  _172
REMARK   69  A    between atoms: _175  and  _177
REMARK   70  A    between atoms: _177  and  _178
REMARK   71  A    between atoms: _177  and  _180
REMARK   72  A    between atoms: _180  and  _181
REMARK   73  A    between atoms: _191  and  _193
REMARK   74  A    between atoms: _193  and  _194
REMARK   75  A    between atoms: _193  and  _196
REMARK   76  A    between atoms: _199  and  _201
REMARK   77  A    between atoms: _201  and  _202
REMARK   78  A    between atoms: _201  and  _204
REMARK   79  A    between atoms: _206  and  _208
REMARK   80  A    between atoms: _208  and  _209
REMARK   81  A    between atoms: _208  and  _211
REMARK   82  A    between atoms: _211  and  _212
REMARK   83  A    between atoms: _222  and  _224
REMARK   84  A    between atoms: _224  and  _225
REMARK   85  A    between atoms: _224  and  _227
REMARK   86  A    between atoms: _227  and  _228
REMARK   87  A    between atoms: _238  and  _240
REMARK   88  A    between atoms: _240  and  _241
REMARK   89  A    between atoms: _240  and  _243
REMARK   90  A    between atoms: _243  and  _244
REMARK   91  A    between atoms: _244  and  _245
REMARK   92  A    between atoms: _245  and  _246
REMARK   93  A    between atoms: _246  and  _247
REMARK   94  A    between atoms: _251  and  _253
REMARK   95  A    between atoms: _253  and  _254
REMARK   96  A    between atoms: _253  and  _256
REMARK   97  A    between atoms: _256  and  _257
REMARK   98  A    between atoms: _257  and  _258
REMARK   99  A    between atoms: _260  and  _262
REMARK  100  A    between atoms: _262  and  _263
REMARK  101  A    between atoms: _262  and  _265
REMARK  102  A    between atoms: _265  and  _266
REMARK  103  A    between atoms: _269  and  _271
REMARK  104  A    between atoms: _271  and  _272
REMARK  105  A    between atoms: _271  and  _274
REMARK  106  A    between atoms: _277  and  _279
REMARK  107  A    between atoms: _279  and  _280
REMARK  108  A    between atoms: _279  and  _282
REMARK  109  A    between atoms: _282  and  _283
REMARK  110  A    between atoms: _283  and  _284
REMARK  111  A    between atoms: _286  and  _288
REMARK  112  A    between atoms: _288  and  _289
REMARK  113  A    between atoms: _288  and  _291
REMARK  114  A    between atoms: _291  and  _292
REMARK  115  A    between atoms: _297  and  _299
REMARK  116  A    between atoms: _299  and  _300
REMARK  117  A    between atoms: _299  and  _302
REMARK  118  A    between atoms: _302  and  _303
REMARK  119  A    between atoms: _306  and  _307
REMARK  120  A    between atoms: _312  and  _314
REMARK  121  A    between atoms: _314  and  _315
REMARK  122  A    between atoms: _314  and  _317
REMARK  123  A    between atoms: _317  and  _318
REMARK  124  A    between atoms: _320  and  _322
REMARK  125  A    between atoms: _322  and  _323
REMARK  126  A    between atoms: _322  and  _325
REMARK  127  A    between atoms: _328  and  _330
REMARK  128  A    between atoms: _330  and  _331
REMARK  129  A    between atoms: _330  and  _333
REMARK  130  A    between atoms: _333  and  _334
REMARK  131  A    between atoms: _340  and  _342
REMARK  132  A    between atoms: _342  and  _343
REMARK  133  A    between atoms: _342  and  _345
REMARK  134  A    between atoms: _345  and  _346
REMARK                            x       y       z     vdW  Elec       q    Type
REMARK                         _______ _______ _______ _____ _____    ______ ____
ROOT
ATOM      1  C   LEU A   1       3.613  37.111   5.593  0.00  0.00    +0.238 C 
ATOM      2  N   GLU A   2       2.652  37.123   6.510  0.00  0.00    -0.298 N 
ATOM      3  H   GLU A   2       2.616  37.892   7.209  0.00  0.00    +0.150 HD
ATOM      4  O   LEU A   1       3.699  36.229   4.742  0.00  0.00    -0.274 OA
ENDROOT
BRANCH   1   5
ATOM      5  CA  LEU A   1       4.616  38.264   5.622  0.00  0.00    +0.145 C 
BRANCH   5   6
ATOM      6  N   LEU A   1       3.869  39.483   5.905  0.00  0.00    -0.238 NA
ATOM      7  H   LEU A   1       3.894  39.899   6.858  0.00  0.00    +0.142 HD
ENDBRANCH   5   6
BRANCH   5   8
ATOM      8  CB  LEU A   1       5.692  37.990   6.681  0.00  0.00    +0.026 C 
BRANCH   8   9
ATOM      9  CG  LEU A   1       6.463  36.671   6.469  0.00  0.00    +0.002 C 
ATOM     10  CD2 LEU A   1       7.417  36.431   7.625  0.00  0.00    +0.000 C 
ATOM     11  CD1 LEU A   1       7.230  36.709   5.146  0.00  0.00    +0.000 C 
ENDBRANCH   8   9
ENDBRANCH   5   8
ENDBRANCH   1   5
BRANCH   2  12
ATOM     12  CA  GLU A   2       1.645  36.065   6.544  0.00  0.00    +0.137 C 
BRANCH  12  13
ATOM     13  C   GLU A   2       0.896  36.041   5.206  0.00  0.00    +0.227 C 
ATOM     14  O   GLU A   2       0.697  34.976   4.602  0.00  0.00    -0.286 OA
ENDBRANCH  12  13
BRANCH  12  15
ATOM     15  CB  GLU A   2       0.660  36.302   7.687  0.00  0.00    +0.039 C 
BRANCH  15  16
ATOM     16  CG  GLU A   2      -0.346  35.182   7.886  0.00  0.00    +0.116 C 
BRANCH  16  17
ATOM     17  CD  GLU A   2      -1.287  35.431   9.056  0.00  0.00    +0.365 C 
ATOM     18  OE2 GLU A   2      -0.802  35.743  10.166  0.00  0.00    -0.246 OA
ATOM     19  OE1 GLU A   2      -2.517  35.303   8.878  0.00  0.00    -0.246 OA
ENDBRANCH  16  17
ENDBRANCH  15  16
ENDBRANCH  12  15
ENDBRANCH   2  12
TORSDOF 9
REMARK  Name = ../refined-set-2016/1x8d/1x8d_pocket.pdb
REMARK  134 active torsions:
REMARK  status: ('A' for Active; 'I' for Inactive)
REMARK    1  A    between atoms: _1  and  _3
REMARK    2  A    between atoms: _3  and  _4
REMARK    3  A    between atoms: _3  and  _6
REMARK    4  A    between atoms: _6  and  _7
REMARK    5  A    between atoms: _13  and  _15
REMARK    6  A    between atoms: _15  and  _16
REMARK    7  A    between atoms: _15  and  _18
REMARK    8  A    between atoms: _18  and  _19
REMARK    9  A    between atoms: _19  and  _20
REMARK   10  A    between atoms: _22  and  _24
REMARK   11  A    between atoms: _24  and  _25
REMARK   12  A    between atoms: _24  and  _27
REMARK   13  A    between atoms: _27  and  _28
REMARK   14  A    between atoms: _28  and  _29
REMARK   15  A    between atoms: _34  and  _36
REMARK   16  A    between atoms: _36  and  _37
REMARK   17  A    between atoms: _36  and  _39
REMARK   18  A    between atoms: _39  and  _40
REMARK   19  A    between atoms: _45  and  _46
REMARK   20  A    between atoms: _48  and  _50
REMARK   21  A    between atoms: _50  and  _51
REMARK   22  A    between atoms: _50  and  _53
REMARK   23  A    between atoms: _53  and  _54
REMARK   24  A    between atoms: _54  and  _55
REMARK   25  A    between atoms: _55  and  _56
REMARK   26  A    between atoms: _65  and  _67
REMARK   27  A    between atoms: _67  and  _68
REMARK   28  A    between atoms: _67  and  _70
REMARK   29  A    between atoms: _70  and  _71
REMARK   30  A    between atoms: _76  and  _78
REMARK   31  A    between atoms: _78  and  _79
REMARK   32  A    between atoms: _78  and  _81
REMARK   33  A    between atoms: _81  and  _82
REMARK   34  A    between atoms: _85  and  _87
REMARK   35  A    between atoms: _87  and  _88
REMARK   36  A    between atoms: _87  and  _90
REMARK   37  A    between atoms: _90  and  _91
REMARK   38  A    between atoms: _101  and  _103
REMARK   39  A    between atoms: _103  and  _104
REMARK   40  A    between atoms: _103  and  _106
REMARK   41  A    between atoms: _106  and  _107
REMARK   42  A    between atoms: _110  and  _112
REMARK   43  A    between atoms: _112  and  _113
REMARK   44  A    between atoms: _112  and  _115
REMARK   45  A    between atoms: _115  and  _116
REMARK   46  A    between atoms: _116  and  _117
REMARK   47  A    between atoms: _120  and  _122
REMARK   48  A    between atoms: _122  and  _123
REMARK   49  A    between atoms: _122  and  _125
REMARK   50  A    between atoms: _125  and  _126
REMARK   51  A    between atoms: _129  and  _131
REMARK   52  A    between atoms: _131  and  _132
REMARK   53  A    between atoms: _131  and  _134
REMARK   54  A    between atoms: _134  and  _135
REMARK   55  A    between atoms: _140  and  _141
REMARK   56  A    between atoms: _143  and  _145
REMARK   57  A    between atoms: _145  and  _146
REMARK   58  A    between atoms: _145  and  _148
REMARK   59  A    between atoms: _148  and  _149
REMARK   60  A    between atoms: _152  and  _154
REMARK   61  A    between atoms: _154  and  _155
REMARK   62  A    between atoms: _154  and  _157
REMARK   63  A    between atoms: _157  and  _158
REMARK   64  A    between atoms: _161  and  _163
REMARK   65  A    between atoms: _163  and  _164
REMARK   66  A    between atoms: _167  and  _169
REMARK   67  A    between atoms: _169  and  _170
REMARK   68  A    between atoms: _169  and  _172
REMARK   69  A    between atoms: _175  and  _177
REMARK   70  A    between atoms: _177  and  _178
REMARK   71  A    between atoms: _177  and  _180
REMARK   72  A    between atoms: _180  and  _181
REMARK   73  A    between atoms: _191  and  _193
REMARK   74  A    between atoms: _193  and  _194
REMARK   75  A    between atoms: _193  and  _196
REMARK   76  A    between atoms: _199  and  _201
REMARK   77  A    between atoms: _201  and  _202
REMARK   78  A    between atoms: _201  and  _204
REMARK   79  A    between atoms: _206  and  _208
REMARK   80  A    between atoms: _208  and  _209
REMARK   81  A    between atoms: _208  and  _211
REMARK   82  A    between atoms: _211  and  _212
REMARK   83  A    between atoms: _222  and  _224
REMARK   84  A    between atoms: _224  and  _225
REMARK   85  A    between atoms: _224  and  _227
REMARK   86  A    between atoms: _227  and  _228
REMARK   87  A    between atoms: _238  and  _240
REMARK   88  A    between atoms: _240  and  _241
REMARK   89  A    between atoms: _240  and  _243
REMARK   90  A    between atoms: _243  and  _244
REMARK   91  A    between atoms: _244  and  _245
REMARK   92  A    between atoms: _245  and  _246
REMARK   93  A    between atoms: _246  and  _247
REMARK   94  A    between atoms: _251  and  _253
REMARK   95  A    between atoms: _253  and  _254
REMARK   96  A    between atoms: _253  and  _256
REMARK   97  A    between atoms: _256  and  _257
REMARK   98  A    between atoms: _257  and  _258
REMARK   99  A    between atoms: _260  and  _262
REMARK  100  A    between atoms: _262  and  _263
REMARK  101  A    between atoms: _262  and  _265
REMARK  102  A    between atoms: _265  and  _266
REMARK  103  A    between atoms: _269  and  _271
REMARK  104  A    between atoms: _271  and  _272
REMARK  105  A    between atoms: _271  and  _274
REMARK  106  A    between atoms: _277  and  _279
REMARK  107  A    between atoms: _279  and  _280
REMARK  108  A    between atoms: _279  and  _282
REMARK  109  A    between atoms: _282  and  _283
REMARK  110  A    between atoms: _283  and  _284
REMARK  111  A    between atoms: _286  and  _288
REMARK  112  A    between atoms: _288  and  _289
REMARK  113  A    between atoms: _288  and  _291
REMARK  114  A    between atoms: _291  and  _292
REMARK  115  A    between atoms: _297  and  _299
REMARK  116  A    between atoms: _299  and  _300
REMARK  117  A    between atoms: _299  and  _302
REMARK  118  A    between atoms: _302  and  _303
REMARK  119  A    between atoms: _306  and  _307
REMARK  120  A    between atoms: _312  and  _314
REMARK  121  A    between atoms: _314  and  _315
REMARK  122  A    between atoms: _314  and  _317
REMARK  123  A    between atoms: _317  and  _318
REMARK  124  A    between atoms: _320  and  _322
REMARK  125  A    between atoms: _322  and  _323
REMARK  126  A    between atoms: _322  and  _325
REMARK  127  A    between atoms: _328  and  _330
REMARK  128  A    between atoms: _330  and  _331
REMARK  129  A    between atoms: _330  and  _333
REMARK  130  A    between atoms: _333  and  _334
REMARK  131  A    between atoms: _340  and  _342
REMARK  132  A    between atoms: _342  and  _343
REMARK  133  A    between atoms: _342  and  _345
REMARK  134  A    between atoms: _345  and  _346
REMARK                            x       y       z     vdW  Elec       q    Type
REMARK                         _______ _______ _______ _____ _____    ______ ____
ROOT
ATOM      1  CA  LEU A   1       3.262  33.078   2.718  0.00  0.00    +0.133 C 
ENDROOT
BRANCH   1   2
ATOM      2  N   LEU A   1       3.119  34.528   2.557  0.00  0.00    -0.239 NA
ATOM      3  H   LEU A   1       3.148  35.142   3.396  0.00  0.00    +0.142 HD
ENDBRANCH   1   2
BRANCH   1   4
ATOM      4  C   LEU A   1       2.014  32.350   2.213  0.00  0.00    +0.224 C 
ATOM      5  O   LEU A   1       2.110  31.327   1.535  0.00  0.00    -0.287 OA
ENDBRANCH   1   4
BRANCH   1   6
ATOM      6  CB  LEU A   1       3.475  32.706   4.193  0.00  0.00    +0.025 C 
BRANCH   6   7
ATOM      7  CG  LEU A   1       4.845  33.006   4.797  0.00  0.00    +0.002 C 
ATOM      8  CD2 LEU A   1       4.823  32.752   6.297  0.00  0.00    +0.000 C 
ATOM      9  CD1 LEU A   1       5.882  32.143   4.105  0.00  0.00    +0.000 C 
ENDBRANCH   6   7
ENDBRANCH   1   6
TORSDOF 4
REMARK  Name = ../refined-set-2016/1x8d/1x8d_pocket.pdb
REMARK  134 active torsions:
REMARK  status: ('A' for Active; 'I' for Inactive)
REMARK    1  A    between atoms: _1  and  _3
REMARK    2  A    between atoms: _3  and  _4
REMARK    3  A    between atoms: _3  and  _6
REMARK    4  A    between atoms: _6  and  _7
REMARK    5  A    between atoms: _13  and  _15
REMARK    6  A    between atoms: _15  and  _16
REMARK    7  A    between atoms: _15  and  _18
REMARK    8  A    between atoms: _18  and  _19
REMARK    9  A    between atoms: _19  and  _20
REMARK   10  A    between atoms: _22  and  _24
REMARK   11  A    between atoms: _24  and  _25
REMARK   12  A    between atoms: _24  and  _27
REMARK   13  A    between atoms: _27  and  _28
REMARK   14  A    between atoms: _28  and  _29
REMARK   15  A    between atoms: _34  and  _36
REMARK   16  A    between atoms: _36  and  _37
REMARK   17  A    between atoms: _36  and  _39
REMARK   18  A    between atoms: _39  and  _40
REMARK   19  A    between atoms: _45  and  _46
REMARK   20  A    between atoms: _48  and  _50
REMARK   21  A    between atoms: _50  and  _51
REMARK   22  A    between atoms: _50  and  _53
REMARK   23  A    between atoms: _53  and  _54
REMARK   24  A    between atoms: _54  and  _55
REMARK   25  A    between atoms: _55  and  _56
REMARK   26  A    between atoms: _65  and  _67
REMARK   27  A    between atoms: _67  and  _68
REMARK   28  A    between atoms: _67  and  _70
REMARK   29  A    between atoms: _70  and  _71
REMARK   30  A    between atoms: _76  and  _78
REMARK   31  A    between atoms: _78  and  _79
REMARK   32  A    between atoms: _78  and  _81
REMARK   33  A    between atoms: _81  and  _82
REMARK   34  A    between atoms: _85  and  _87
REMARK   35  A    between atoms: _87  and  _88
REMARK   36  A    between atoms: _87  and  _90
REMARK   37  A    between atoms: _90  and  _91
REMARK   38  A    between atoms: _101  and  _103
REMARK   39  A    between atoms: _103  and  _104
REMARK   40  A    between atoms: _103  and  _106
REMARK   41  A    between atoms: _106  and  _107
REMARK   42  A    between atoms: _110  and  _112
REMARK   43  A    between atoms: _112  and  _113
REMARK   44  A    between atoms: _112  and  _115
REMARK   45  A    between atoms: _115  and  _116
REMARK   46  A    between atoms: _116  and  _117
REMARK   47  A    between atoms: _120  and  _122
REMARK   48  A    between atoms: _122  and  _123
REMARK   49  A    between atoms: _122  and  _125
REMARK   50  A    between atoms: _125  and  _126
REMARK   51  A    between atoms: _129  and  _131
REMARK   52  A    between atoms: _131  and  _132
REMARK   53  A    between atoms: _131  and  _134
REMARK   54  A    between atoms: _134  and  _135
REMARK   55  A    between atoms: _140  and  _141
REMARK   56  A    between atoms: _143  and  _145
REMARK   57  A    between atoms: _145  and  _146
REMARK   58  A    between atoms: _145  and  _148
REMARK   59  A    between atoms: _148  and  _149
REMARK   60  A    between atoms: _152  and  _154
REMARK   61  A    between atoms: _154  and  _155
REMARK   62  A    between atoms: _154  and  _157
REMARK   63  A    between atoms: _157  and  _158
REMARK   64  A    between atoms: _161  and  _163
REMARK   65  A    between atoms: _163  and  _164
REMARK   66  A    between atoms: _167  and  _169
REMARK   67  A    between atoms: _169  and  _170
REMARK   68  A    between atoms: _169  and  _172
REMARK   69  A    between atoms: _175  and  _177
REMARK   70  A    between atoms: _177  and  _178
REMARK   71  A    between atoms: _177  and  _180
REMARK   72  A    between atoms: _180  and  _181
REMARK   73  A    between atoms: _191  and  _193
REMARK   74  A    between atoms: _193  and  _194
REMARK   75  A    between atoms: _193  and  _196
REMARK   76  A    between atoms: _199  and  _201
REMARK   77  A    between atoms: _201  and  _202
REMARK   78  A    between atoms: _201  and  _204
REMARK   79  A    between atoms: _206  and  _208
REMARK   80  A    between atoms: _208  and  _209
REMARK   81  A    between atoms: _208  and  _211
REMARK   82  A    between atoms: _211  and  _212
REMARK   83  A    between atoms: _222  and  _224
REMARK   84  A    between atoms: _224  and  _225
REMARK   85  A    between atoms: _224  and  _227
REMARK   86  A    between atoms: _227  and  _228
REMARK   87  A    between atoms: _238  and  _240
REMARK   88  A    between atoms: _240  and  _241
REMARK   89  A    between atoms: _240  and  _243
REMARK   90  A    between atoms: _243  and  _244
REMARK   91  A    between atoms: _244  and  _245
REMARK   92  A    between atoms: _245  and  _246
REMARK   93  A    between atoms: _246  and  _247
REMARK   94  A    between atoms: _251  and  _253
REMARK   95  A    between atoms: _253  and  _254
REMARK   96  A    between atoms: _253  and  _256
REMARK   97  A    between atoms: _256  and  _257
REMARK   98  A    between atoms: _257  and  _258
REMARK   99  A    between atoms: _260  and  _262
REMARK  100  A    between atoms: _262  and  _263
REMARK  101  A    between atoms: _262  and  _265
REMARK  102  A    between atoms: _265  and  _266
REMARK  103  A    between atoms: _269  and  _271
REMARK  104  A    between atoms: _271  and  _272
REMARK  105  A    between atoms: _271  and  _274
REMARK  106  A    between atoms: _277  and  _279
REMARK  107  A    between atoms: _279  and  _280
REMARK  108  A    between atoms: _279  and  _282
REMARK  109  A    between atoms: _282  and  _283
REMARK  110  A    between atoms: _283  and  _284
REMARK  111  A    between atoms: _286  and  _288
REMARK  112  A    between atoms: _288  and  _289
REMARK  113  A    between atoms: _288  and  _291
REMARK  114  A    between atoms: _291  and  _292
REMARK  115  A    between atoms: _297  and  _299
REMARK  116  A    between atoms: _299  and  _300
REMARK  117  A    between atoms: _299  and  _302
REMARK  118  A    between atoms: _302  and  _303
REMARK  119  A    between atoms: _306  and  _307
REMARK  120  A    between atoms: _312  and  _314
REMARK  121  A    between atoms: _314  and  _315
REMARK  122  A    between atoms: _314  and  _317
REMARK  123  A    between atoms: _317  and  _318
REMARK  124  A    between atoms: _320  and  _322
REMARK  125  A    between atoms: _322  and  _323
REMARK  126  A    between atoms: _322  and  _325
REMARK  127  A    between atoms: _328  and  _330
REMARK  128  A    between atoms: _330  and  _331
REMARK  129  A    between atoms: _330  and  _333
REMARK  130  A    between atoms: _333  and  _334
REMARK  131  A    between atoms: _340  and  _342
REMARK  132  A    between atoms: _342  and  _343
REMARK  133  A    between atoms: _342  and  _345
REMARK  134  A    between atoms: _345  and  _346
REMARK                            x       y       z     vdW  Elec       q    Type
REMARK                         _______ _______ _______ _____ _____    ______ ____
ROOT
ATOM      1  CG  TYR A   1       5.146  27.713   7.746  0.00  0.00    -0.020 A 
ATOM      2  CD2 TYR A   1       6.159  26.979   8.361  0.00  0.00    -0.001 A 
ATOM      3  CE2 TYR A   1       7.500  27.310   8.173  0.00  0.00    +0.036 A 
ATOM      4  CZ  TYR A   1       7.835  28.385   7.362  0.00  0.00    +0.134 A 
ATOM      5  CE1 TYR A   1       6.849  29.123   6.744  0.00  0.00    +0.036 A 
ATOM      6  CD1 TYR A   1       5.512  28.785   6.939  0.00  0.00    -0.001 A 
ENDROOT
BRANCH   4   7
ATOM      7  OH  TYR A   1       9.156  28.725   7.160  0.00  0.00    -0.506 OA
ATOM      8  HH  TYR A   1       9.308  29.652   7.472  0.00  0.00    +0.292 HD
ENDBRANCH   4   7
BRANCH   1   9
ATOM      9  CB  TYR A   1       3.692  27.383   7.961  0.00  0.00    +0.051 C 
BRANCH   9  10
ATOM     10  CA  TYR A   1       3.398  25.977   8.489  0.00  0.00    +0.137 C 
BRANCH  10  11
ATOM     11  N   TYR A   1       1.982  25.681   8.307  0.00  0.00    -0.239 NA
ATOM     12  H   TYR A   1       1.322  26.470   8.153  0.00  0.00    +0.142 HD
ENDBRANCH  10  11
BRANCH  10  13
ATOM     13  C   TYR A   1       3.629  25.937   9.992  0.00  0.00    +0.224 C 
ATOM     14  O   TYR A   1       3.072  26.761  10.713  0.00  0.00    -0.287 OA
ENDBRANCH  10  13
ENDBRANCH   9  10
ENDBRANCH   1   9
TORSDOF 5
REMARK  Name = ../refined-set-2016/1x8d/1x8d_pocket.pdb
REMARK  134 active torsions:
REMARK  status: ('A' for Active; 'I' for Inactive)
REMARK    1  A    between atoms: _1  and  _3
REMARK    2  A    between atoms: _3  and  _4
REMARK    3  A    between atoms: _3  and  _6
REMARK    4  A    between atoms: _6  and  _7
REMARK    5  A    between atoms: _13  and  _15
REMARK    6  A    between atoms: _15  and  _16
REMARK    7  A    between atoms: _15  and  _18
REMARK    8  A    between atoms: _18  and  _19
REMARK    9  A    between atoms: _19  and  _20
REMARK   10  A    between atoms: _22  and  _24
REMARK   11  A    between atoms: _24  and  _25
REMARK   12  A    between atoms: _24  and  _27
REMARK   13  A    between atoms: _27  and  _28
REMARK   14  A    between atoms: _28  and  _29
REMARK   15  A    between atoms: _34  and  _36
REMARK   16  A    between atoms: _36  and  _37
REMARK   17  A    between atoms: _36  and  _39
REMARK   18  A    between atoms: _39  and  _40
REMARK   19  A    between atoms: _45  and  _46
REMARK   20  A    between atoms: _48  and  _50
REMARK   21  A    between atoms: _50  and  _51
REMARK   22  A    between atoms: _50  and  _53
REMARK   23  A    between atoms: _53  and  _54
REMARK   24  A    between atoms: _54  and  _55
REMARK   25  A    between atoms: _55  and  _56
REMARK   26  A    between atoms: _65  and  _67
REMARK   27  A    between atoms: _67  and  _68
REMARK   28  A    between atoms: _67  and  _70
REMARK   29  A    between atoms: _70  and  _71
REMARK   30  A    between atoms: _76  and  _78
REMARK   31  A    between atoms: _78  and  _79
REMARK   32  A    between atoms: _78  and  _81
REMARK   33  A    between atoms: _81  and  _82
REMARK   34  A    between atoms: _85  and  _87
REMARK   35  A    between atoms: _87  and  _88
REMARK   36  A    between atoms: _87  and  _90
REMARK   37  A    between atoms: _90  and  _91
REMARK   38  A    between atoms: _101  and  _103
REMARK   39  A    between atoms: _103  and  _104
REMARK   40  A    between atoms: _103  and  _106
REMARK   41  A    between atoms: _106  and  _107
REMARK   42  A    between atoms: _110  and  _112
REMARK   43  A    between atoms: _112  and  _113
REMARK   44  A    between atoms: _112  and  _115
REMARK   45  A    between atoms: _115  and  _116
REMARK   46  A    between atoms: _116  and  _117
REMARK   47  A    between atoms: _120  and  _122
REMARK   48  A    between atoms: _122  and  _123
REMARK   49  A    between atoms: _122  and  _125
REMARK   50  A    between atoms: _125  and  _126
REMARK   51  A    between atoms: _129  and  _131
REMARK   52  A    between atoms: _131  and  _132
REMARK   53  A    between atoms: _131  and  _134
REMARK   54  A    between atoms: _134  and  _135
REMARK   55  A    between atoms: _140  and  _141
REMARK   56  A    between atoms: _143  and  _145
REMARK   57  A    between atoms: _145  and  _146
REMARK   58  A    between atoms: _145  and  _148
REMARK   59  A    between atoms: _148  and  _149
REMARK   60  A    between atoms: _152  and  _154
REMARK   61  A    between atoms: _154  and  _155
REMARK   62  A    between atoms: _154  and  _157
REMARK   63  A    between atoms: _157  and  _158
REMARK   64  A    between atoms: _161  and  _163
REMARK   65  A    between atoms: _163  and  _164
REMARK   66  A    between atoms: _167  and  _169
REMARK   67  A    between atoms: _169  and  _170
REMARK   68  A    between atoms: _169  and  _172
REMARK   69  A    between atoms: _175  and  _177
REMARK   70  A    between atoms: _177  and  _178
REMARK   71  A    between atoms: _177  and  _180
REMARK   72  A    between atoms: _180  and  _181
REMARK   73  A    between atoms: _191  and  _193
REMARK   74  A    between atoms: _193  and  _194
REMARK   75  A    between atoms: _193  and  _196
REMARK   76  A    between atoms: _199  and  _201
REMARK   77  A    between atoms: _201  and  _202
REMARK   78  A    between atoms: _201  and  _204
REMARK   79  A    between atoms: _206  and  _208
REMARK   80  A    between atoms: _208  and  _209
REMARK   81  A    between atoms: _208  and  _211
REMARK   82  A    between atoms: _211  and  _212
REMARK   83  A    between atoms: _222  and  _224
REMARK   84  A    between atoms: _224  and  _225
REMARK   85  A    between atoms: _224  and  _227
REMARK   86  A    between atoms: _227  and  _228
REMARK   87  A    between atoms: _238  and  _240
REMARK   88  A    between atoms: _240  and  _241
REMARK   89  A    between atoms: _240  and  _243
REMARK   90  A    between atoms: _243  and  _244
REMARK   91  A    between atoms: _244  and  _245
REMARK   92  A    between atoms: _245  and  _246
REMARK   93  A    between atoms: _246  and  _247
REMARK   94  A    between atoms: _251  and  _253
REMARK   95  A    between atoms: _253  and  _254
REMARK   96  A    between atoms: _253  and  _256
REMARK   97  A    between atoms: _256  and  _257
REMARK   98  A    between atoms: _257  and  _258
REMARK   99  A    between atoms: _260  and  _262
REMARK  100  A    between atoms: _262  and  _263
REMARK  101  A    between atoms: _262  and  _265
REMARK  102  A    between atoms: _265  and  _266
REMARK  103  A    between atoms: _269  and  _271
REMARK  104  A    between atoms: _271  and  _272
REMARK  105  A    between atoms: _271  and  _274
REMARK  106  A    between atoms: _277  and  _279
REMARK  107  A    between atoms: _279  and  _280
REMARK  108  A    between atoms: _279  and  _282
REMARK  109  A    between atoms: _282  and  _283
REMARK  110  A    between atoms: _283  and  _284
REMARK  111  A    between atoms: _286  and  _288
REMARK  112  A    between atoms: _288  and  _289
REMARK  113  A    between atoms: _288  and  _291
REMARK  114  A    between atoms: _291  and  _292
REMARK  115  A    between atoms: _297  and  _299
REMARK  116  A    between atoms: _299  and  _300
REMARK  117  A    between atoms: _299  and  _302
REMARK  118  A    between atoms: _302  and  _303
REMARK  119  A    between atoms: _306  and  _307
REMARK  120  A    between atoms: _312  and  _314
REMARK  121  A    between atoms: _314  and  _315
REMARK  122  A    between atoms: _314  and  _317
REMARK  123  A    between atoms: _317  and  _318
REMARK  124  A    between atoms: _320  and  _322
REMARK  125  A    between atoms: _322  and  _323
REMARK  126  A    between atoms: _322  and  _325
REMARK  127  A    between atoms: _328  and  _330
REMARK  128  A    between atoms: _330  and  _331
REMARK  129  A    between atoms: _330  and  _333
REMARK  130  A    between atoms: _333  and  _334
REMARK  131  A    between atoms: _340  and  _342
REMARK  132  A    between atoms: _342  and  _343
REMARK  133  A    between atoms: _342  and  _345
REMARK  134  A    between atoms: _345  and  _346
REMARK                            x       y       z     vdW  Elec       q    Type
REMARK                         _______ _______ _______ _____ _____    ______ ____
ROOT
ATOM      1  CA  ILE A   1       8.027  25.418  13.611  0.00  0.00    +0.133 C 
ENDROOT
BRANCH   1   2
ATOM      2  N   ILE A   1       6.625  25.427  13.234  0.00  0.00    -0.239 NA
ATOM      3  H   ILE A   1       5.946  25.964  13.810  0.00  0.00    +0.142 HD
ENDBRANCH   1   2
BRANCH   1   4
ATOM      4  C   ILE A   1       8.134  25.033  15.079  0.00  0.00    +0.224 C 
ATOM      5  O   ILE A   1       7.425  25.592  15.926  0.00  0.00    -0.287 OA
ENDBRANCH   1   4
BRANCH   1   6
ATOM      6  CB  ILE A   1       8.670  26.813  13.390  0.00  0.00    +0.023 C 
ATOM      7  CG2 ILE A   1      10.123  26.801  13.837  0.00  0.00    +0.002 C 
BRANCH   6   8
ATOM      8  CG1 ILE A   1       8.580  27.199  11.912  0.00  0.00    +0.002 C 
ATOM      9  CD1 ILE A   1       9.072  28.608  11.619  0.00  0.00    +0.000 C 
ENDBRANCH   6   8
ENDBRANCH   1   6
TORSDOF 4
REMARK  Name = ../refined-set-2016/1x8d/1x8d_pocket.pdb
REMARK  134 active torsions:
REMARK  status: ('A' for Active; 'I' for Inactive)
REMARK    1  A    between atoms: _1  and  _3
REMARK    2  A    between atoms: _3  and  _4
REMARK    3  A    between atoms: _3  and  _6
REMARK    4  A    between atoms: _6  and  _7
REMARK    5  A    between atoms: _13  and  _15
REMARK    6  A    between atoms: _15  and  _16
REMARK    7  A    between atoms: _15  and  _18
REMARK    8  A    between atoms: _18  and  _19
REMARK    9  A    between atoms: _19  and  _20
REMARK   10  A    between atoms: _22  and  _24
REMARK   11  A    between atoms: _24  and  _25
REMARK   12  A    between atoms: _24  and  _27
REMARK   13  A    between atoms: _27  and  _28
REMARK   14  A    between atoms: _28  and  _29
REMARK   15  A    between atoms: _34  and  _36
REMARK   16  A    between atoms: _36  and  _37
REMARK   17  A    between atoms: _36  and  _39
REMARK   18  A    between atoms: _39  and  _40
REMARK   19  A    between atoms: _45  and  _46
REMARK   20  A    between atoms: _48  and  _50
REMARK   21  A    between atoms: _50  and  _51
REMARK   22  A    between atoms: _50  and  _53
REMARK   23  A    between atoms: _53  and  _54
REMARK   24  A    between atoms: _54  and  _55
REMARK   25  A    between atoms: _55  and  _56
REMARK   26  A    between atoms: _65  and  _67
REMARK   27  A    between atoms: _67  and  _68
REMARK   28  A    between atoms: _67  and  _70
REMARK   29  A    between atoms: _70  and  _71
REMARK   30  A    between atoms: _76  and  _78
REMARK   31  A    between atoms: _78  and  _79
REMARK   32  A    between atoms: _78  and  _81
REMARK   33  A    between atoms: _81  and  _82
REMARK   34  A    between atoms: _85  and  _87
REMARK   35  A    between atoms: _87  and  _88
REMARK   36  A    between atoms: _87  and  _90
REMARK   37  A    between atoms: _90  and  _91
REMARK   38  A    between atoms: _101  and  _103
REMARK   39  A    between atoms: _103  and  _104
REMARK   40  A    between atoms: _103  and  _106
REMARK   41  A    between atoms: _106  and  _107
REMARK   42  A    between atoms: _110  and  _112
REMARK   43  A    between atoms: _112  and  _113
REMARK   44  A    between atoms: _112  and  _115
REMARK   45  A    between atoms: _115  and  _116
REMARK   46  A    between atoms: _116  and  _117
REMARK   47  A    between atoms: _120  and  _122
REMARK   48  A    between atoms: _122  and  _123
REMARK   49  A    between atoms: _122  and  _125
REMARK   50  A    between atoms: _125  and  _126
REMARK   51  A    between atoms: _129  and  _131
REMARK   52  A    between atoms: _131  and  _132
REMARK   53  A    between atoms: _131  and  _134
REMARK   54  A    between atoms: _134  and  _135
REMARK   55  A    between atoms: _140  and  _141
REMARK   56  A    between atoms: _143  and  _145
REMARK   57  A    between atoms: _145  and  _146
REMARK   58  A    between atoms: _145  and  _148
REMARK   59  A    between atoms: _148  and  _149
REMARK   60  A    between atoms: _152  and  _154
REMARK   61  A    between atoms: _154  and  _155
REMARK   62  A    between atoms: _154  and  _157
REMARK   63  A    between atoms: _157  and  _158
REMARK   64  A    between atoms: _161  and  _163
REMARK   65  A    between atoms: _163  and  _164
REMARK   66  A    between atoms: _167  and  _169
REMARK   67  A    between atoms: _169  and  _170
REMARK   68  A    between atoms: _169  and  _172
REMARK   69  A    between atoms: _175  and  _177
REMARK   70  A    between atoms: _177  and  _178
REMARK   71  A    between atoms: _177  and  _180
REMARK   72  A    between atoms: _180  and  _181
REMARK   73  A    between atoms: _191  and  _193
REMARK   74  A    between atoms: _193  and  _194
REMARK   75  A    between atoms: _193  and  _196
REMARK   76  A    between atoms: _199  and  _201
REMARK   77  A    between atoms: _201  and  _202
REMARK   78  A    between atoms: _201  and  _204
REMARK   79  A    between atoms: _206  and  _208
REMARK   80  A    between atoms: _208  and  _209
REMARK   81  A    between atoms: _208  and  _211
REMARK   82  A    between atoms: _211  and  _212
REMARK   83  A    between atoms: _222  and  _224
REMARK   84  A    between atoms: _224  and  _225
REMARK   85  A    between atoms: _224  and  _227
REMARK   86  A    between atoms: _227  and  _228
REMARK   87  A    between atoms: _238  and  _240
REMARK   88  A    between atoms: _240  and  _241
REMARK   89  A    between atoms: _240  and  _243
REMARK   90  A    between atoms: _243  and  _244
REMARK   91  A    between atoms: _244  and  _245
REMARK   92  A    between atoms: _245  and  _246
REMARK   93  A    between atoms: _246  and  _247
REMARK   94  A    between atoms: _251  and  _253
REMARK   95  A    between atoms: _253  and  _254
REMARK   96  A    between atoms: _253  and  _256
REMARK   97  A    between atoms: _256  and  _257
REMARK   98  A    between atoms: _257  and  _258
REMARK   99  A    between atoms: _260  and  _262
REMARK  100  A    between atoms: _262  and  _263
REMARK  101  A    between atoms: _262  and  _265
REMARK  102  A    between atoms: _265  and  _266
REMARK  103  A    between atoms: _269  and  _271
REMARK  104  A    between atoms: _271  and  _272
REMARK  105  A    between atoms: _271  and  _274
REMARK  106  A    between atoms: _277  and  _279
REMARK  107  A    between atoms: _279  and  _280
REMARK  108  A    between atoms: _279  and  _282
REMARK  109  A    between atoms: _282  and  _283
REMARK  110  A    between atoms: _283  and  _284
REMARK  111  A    between atoms: _286  and  _288
REMARK  112  A    between atoms: _288  and  _289
REMARK  113  A    between atoms: _288  and  _291
REMARK  114  A    between atoms: _291  and  _292
REMARK  115  A    between atoms: _297  and  _299
REMARK  116  A    between atoms: _299  and  _300
REMARK  117  A    between atoms: _299  and  _302
REMARK  118  A    between atoms: _302  and  _303
REMARK  119  A    between atoms: _306  and  _307
REMARK  120  A    between atoms: _312  and  _314
REMARK  121  A    between atoms: _314  and  _315
REMARK  122  A    between atoms: _314  and  _317
REMARK  123  A    between atoms: _317  and  _318
REMARK  124  A    between atoms: _320  and  _322
REMARK  125  A    between atoms: _322  and  _323
REMARK  126  A    between atoms: _322  and  _325
REMARK  127  A    between atoms: _328  and  _330
REMARK  128  A    between atoms: _330  and  _331
REMARK  129  A    between atoms: _330  and  _333
REMARK  130  A    between atoms: _333  and  _334
REMARK  131  A    between atoms: _340  and  _342
REMARK  132  A    between atoms: _342  and  _343
REMARK  133  A    between atoms: _342  and  _345
REMARK  134  A    between atoms: _345  and  _346
REMARK                            x       y       z     vdW  Elec       q    Type
REMARK                         _______ _______ _______ _____ _____    ______ ____
ROOT
ATOM      1  CA  LEU A   1      14.285  24.677  14.830  0.00  0.00    +0.133 C 
ENDROOT
BRANCH   1   2
ATOM      2  N   LEU A   1      15.653  24.343  15.182  0.00  0.00    -0.239 NA
ATOM      3  H   LEU A   1      16.373  24.342  14.432  0.00  0.00    +0.142 HD
ENDBRANCH   1   2
BRANCH   1   4
ATOM      4  C   LEU A   1      13.822  23.703  13.759  0.00  0.00    +0.224 C 
ATOM      5  O   LEU A   1      14.368  23.672  12.643  0.00  0.00    -0.287 OA
ENDBRANCH   1   4
BRANCH   1   6
ATOM      6  CB  LEU A   1      14.209  26.105  14.304  0.00  0.00    +0.025 C 
BRANCH   6   7
ATOM      7  CG  LEU A   1      14.582  27.200  15.307  0.00  0.00    +0.002 C 
ATOM      8  CD2 LEU A   1      13.478  27.370  16.345  0.00  0.00    +0.000 C 
ATOM      9  CD1 LEU A   1      14.831  28.502  14.560  0.00  0.00    +0.000 C 
ENDBRANCH   6   7
ENDBRANCH   1   6
TORSDOF 4
REMARK  Name = ../refined-set-2016/1x8d/1x8d_pocket.pdb
REMARK  134 active torsions:
REMARK  status: ('A' for Active; 'I' for Inactive)
REMARK    1  A    between atoms: _1  and  _3
REMARK    2  A    between atoms: _3  and  _4
REMARK    3  A    between atoms: _3  and  _6
REMARK    4  A    between atoms: _6  and  _7
REMARK    5  A    between atoms: _13  and  _15
REMARK    6  A    between atoms: _15  and  _16
REMARK    7  A    between atoms: _15  and  _18
REMARK    8  A    between atoms: _18  and  _19
REMARK    9  A    between atoms: _19  and  _20
REMARK   10  A    between atoms: _22  and  _24
REMARK   11  A    between atoms: _24  and  _25
REMARK   12  A    between atoms: _24  and  _27
REMARK   13  A    between atoms: _27  and  _28
REMARK   14  A    between atoms: _28  and  _29
REMARK   15  A    between atoms: _34  and  _36
REMARK   16  A    between atoms: _36  and  _37
REMARK   17  A    between atoms: _36  and  _39
REMARK   18  A    between atoms: _39  and  _40
REMARK   19  A    between atoms: _45  and  _46
REMARK   20  A    between atoms: _48  and  _50
REMARK   21  A    between atoms: _50  and  _51
REMARK   22  A    between atoms: _50  and  _53
REMARK   23  A    between atoms: _53  and  _54
REMARK   24  A    between atoms: _54  and  _55
REMARK   25  A    between atoms: _55  and  _56
REMARK   26  A    between atoms: _65  and  _67
REMARK   27  A    between atoms: _67  and  _68
REMARK   28  A    between atoms: _67  and  _70
REMARK   29  A    between atoms: _70  and  _71
REMARK   30  A    between atoms: _76  and  _78
REMARK   31  A    between atoms: _78  and  _79
REMARK   32  A    between atoms: _78  and  _81
REMARK   33  A    between atoms: _81  and  _82
REMARK   34  A    between atoms: _85  and  _87
REMARK   35  A    between atoms: _87  and  _88
REMARK   36  A    between atoms: _87  and  _90
REMARK   37  A    between atoms: _90  and  _91
REMARK   38  A    between atoms: _101  and  _103
REMARK   39  A    between atoms: _103  and  _104
REMARK   40  A    between atoms: _103  and  _106
REMARK   41  A    between atoms: _106  and  _107
REMARK   42  A    between atoms: _110  and  _112
REMARK   43  A    between atoms: _112  and  _113
REMARK   44  A    between atoms: _112  and  _115
REMARK   45  A    between atoms: _115  and  _116
REMARK   46  A    between atoms: _116  and  _117
REMARK   47  A    between atoms: _120  and  _122
REMARK   48  A    between atoms: _122  and  _123
REMARK   49  A    between atoms: _122  and  _125
REMARK   50  A    between atoms: _125  and  _126
REMARK   51  A    between atoms: _129  and  _131
REMARK   52  A    between atoms: _131  and  _132
REMARK   53  A    between atoms: _131  and  _134
REMARK   54  A    between atoms: _134  and  _135
REMARK   55  A    between atoms: _140  and  _141
REMARK   56  A    between atoms: _143  and  _145
REMARK   57  A    between atoms: _145  and  _146
REMARK   58  A    between atoms: _145  and  _148
REMARK   59  A    between atoms: _148  and  _149
REMARK   60  A    between atoms: _152  and  _154
REMARK   61  A    between atoms: _154  and  _155
REMARK   62  A    between atoms: _154  and  _157
REMARK   63  A    between atoms: _157  and  _158
REMARK   64  A    between atoms: _161  and  _163
REMARK   65  A    between atoms: _163  and  _164
REMARK   66  A    between atoms: _167  and  _169
REMARK   67  A    between atoms: _169  and  _170
REMARK   68  A    between atoms: _169  and  _172
REMARK   69  A    between atoms: _175  and  _177
REMARK   70  A    between atoms: _177  and  _178
REMARK   71  A    between atoms: _177  and  _180
REMARK   72  A    between atoms: _180  and  _181
REMARK   73  A    between atoms: _191  and  _193
REMARK   74  A    between atoms: _193  and  _194
REMARK   75  A    between atoms: _193  and  _196
REMARK   76  A    between atoms: _199  and  _201
REMARK   77  A    between atoms: _201  and  _202
REMARK   78  A    between atoms: _201  and  _204
REMARK   79  A    between atoms: _206  and  _208
REMARK   80  A    between atoms: _208  and  _209
REMARK   81  A    between atoms: _208  and  _211
REMARK   82  A    between atoms: _211  and  _212
REMARK   83  A    between atoms: _222  and  _224
REMARK   84  A    between atoms: _224  and  _225
REMARK   85  A    between atoms: _224  and  _227
REMARK   86  A    between atoms: _227  and  _228
REMARK   87  A    between atoms: _238  and  _240
REMARK   88  A    between atoms: _240  and  _241
REMARK   89  A    between atoms: _240  and  _243
REMARK   90  A    between atoms: _243  and  _244
REMARK   91  A    between atoms: _244  and  _245
REMARK   92  A    between atoms: _245  and  _246
REMARK   93  A    between atoms: _246  and  _247
REMARK   94  A    between atoms: _251  and  _253
REMARK   95  A    between atoms: _253  and  _254
REMARK   96  A    between atoms: _253  and  _256
REMARK   97  A    between atoms: _256  and  _257
REMARK   98  A    between atoms: _257  and  _258
REMARK   99  A    between atoms: _260  and  _262
REMARK  100  A    between atoms: _262  and  _263
REMARK  101  A    between atoms: _262  and  _265
REMARK  102  A    between atoms: _265  and  _266
REMARK  103  A    between atoms: _269  and  _271
REMARK  104  A    between atoms: _271  and  _272
REMARK  105  A    between atoms: _271  and  _274
REMARK  106  A    between atoms: _277  and  _279
REMARK  107  A    between atoms: _279  and  _280
REMARK  108  A    between atoms: _279  and  _282
REMARK  109  A    between atoms: _282  and  _283
REMARK  110  A    between atoms: _283  and  _284
REMARK  111  A    between atoms: _286  and  _288
REMARK  112  A    between atoms: _288  and  _289
REMARK  113  A    between atoms: _288  and  _291
REMARK  114  A    between atoms: _291  and  _292
REMARK  115  A    between atoms: _297  and  _299
REMARK  116  A    between atoms: _299  and  _300
REMARK  117  A    between atoms: _299  and  _302
REMARK  118  A    between atoms: _302  and  _303
REMARK  119  A    between atoms: _306  and  _307
REMARK  120  A    between atoms: _312  and  _314
REMARK  121  A    between atoms: _314  and  _315
REMARK  122  A    between atoms: _314  and  _317
REMARK  123  A    between atoms: _317  and  _318
REMARK  124  A    between atoms: _320  and  _322
REMARK  125  A    between atoms: _322  and  _323
REMARK  126  A    between atoms: _322  and  _325
REMARK  127  A    between atoms: _328  and  _330
REMARK  128  A    between atoms: _330  and  _331
REMARK  129  A    between atoms: _330  and  _333
REMARK  130  A    between atoms: _333  and  _334
REMARK  131  A    between atoms: _340  and  _342
REMARK  132  A    between atoms: _342  and  _343
REMARK  133  A    between atoms: _342  and  _345
REMARK  134  A    between atoms: _345  and  _346
REMARK                            x       y       z     vdW  Elec       q    Type
REMARK                         _______ _______ _______ _____ _____    ______ ____
ROOT
ATOM      1  CA  ALA A   1       9.919  23.206  10.528  0.00  0.00    +0.133 C 
ATOM      2  CB  ALA A   1      10.358  24.464   9.758  0.00  0.00    +0.027 C 
ENDROOT
BRANCH   1   3
ATOM      3  N   ALA A   1      11.055  22.638  11.251  0.00  0.00    -0.239 NA
ATOM      4  H   ALA A   1      11.909  22.351  10.731  0.00  0.00    +0.142 HD
ENDBRANCH   1   3
BRANCH   1   5
ATOM      5  C   ALA A   1       9.237  22.231   9.579  0.00  0.00    +0.224 C 
ATOM      6  O   ALA A   1       9.886  21.398   8.945  0.00  0.00    -0.287 OA
ENDBRANCH   1   5
TORSDOF 2
REMARK  Name = ../refined-set-2016/1x8d/1x8d_pocket.pdb
REMARK  134 active torsions:
REMARK  status: ('A' for Active; 'I' for Inactive)
REMARK    1  A    between atoms: _1  and  _3
REMARK    2  A    between atoms: _3  and  _4
REMARK    3  A    between atoms: _3  and  _6
REMARK    4  A    between atoms: _6  and  _7
REMARK    5  A    between atoms: _13  and  _15
REMARK    6  A    between atoms: _15  and  _16
REMARK    7  A    between atoms: _15  and  _18
REMARK    8  A    between atoms: _18  and  _19
REMARK    9  A    between atoms: _19  and  _20
REMARK   10  A    between atoms: _22  and  _24
REMARK   11  A    between atoms: _24  and  _25
REMARK   12  A    between atoms: _24  and  _27
REMARK   13  A    between atoms: _27  and  _28
REMARK   14  A    between atoms: _28  and  _29
REMARK   15  A    between atoms: _34  and  _36
REMARK   16  A    between atoms: _36  and  _37
REMARK   17  A    between atoms: _36  and  _39
REMARK   18  A    between atoms: _39  and  _40
REMARK   19  A    between atoms: _45  and  _46
REMARK   20  A    between atoms: _48  and  _50
REMARK   21  A    between atoms: _50  and  _51
REMARK   22  A    between atoms: _50  and  _53
REMARK   23  A    between atoms: _53  and  _54
REMARK   24  A    between atoms: _54  and  _55
REMARK   25  A    between atoms: _55  and  _56
REMARK   26  A    between atoms: _65  and  _67
REMARK   27  A    between atoms: _67  and  _68
REMARK   28  A    between atoms: _67  and  _70
REMARK   29  A    between atoms: _70  and  _71
REMARK   30  A    between atoms: _76  and  _78
REMARK   31  A    between atoms: _78  and  _79
REMARK   32  A    between atoms: _78  and  _81
REMARK   33  A    between atoms: _81  and  _82
REMARK   34  A    between atoms: _85  and  _87
REMARK   35  A    between atoms: _87  and  _88
REMARK   36  A    between atoms: _87  and  _90
REMARK   37  A    between atoms: _90  and  _91
REMARK   38  A    between atoms: _101  and  _103
REMARK   39  A    between atoms: _103  and  _104
REMARK   40  A    between atoms: _103  and  _106
REMARK   41  A    between atoms: _106  and  _107
REMARK   42  A    between atoms: _110  and  _112
REMARK   43  A    between atoms: _112  and  _113
REMARK   44  A    between atoms: _112  and  _115
REMARK   45  A    between atoms: _115  and  _116
REMARK   46  A    between atoms: _116  and  _117
REMARK   47  A    between atoms: _120  and  _122
REMARK   48  A    between atoms: _122  and  _123
REMARK   49  A    between atoms: _122  and  _125
REMARK   50  A    between atoms: _125  and  _126
REMARK   51  A    between atoms: _129  and  _131
REMARK   52  A    between atoms: _131  and  _132
REMARK   53  A    between atoms: _131  and  _134
REMARK   54  A    between atoms: _134  and  _135
REMARK   55  A    between atoms: _140  and  _141
REMARK   56  A    between atoms: _143  and  _145
REMARK   57  A    between atoms: _145  and  _146
REMARK   58  A    between atoms: _145  and  _148
REMARK   59  A    between atoms: _148  and  _149
REMARK   60  A    between atoms: _152  and  _154
REMARK   61  A    between atoms: _154  and  _155
REMARK   62  A    between atoms: _154  and  _157
REMARK   63  A    between atoms: _157  and  _158
REMARK   64  A    between atoms: _161  and  _163
REMARK   65  A    between atoms: _163  and  _164
REMARK   66  A    between atoms: _167  and  _169
REMARK   67  A    between atoms: _169  and  _170
REMARK   68  A    between atoms: _169  and  _172
REMARK   69  A    between atoms: _175  and  _177
REMARK   70  A    between atoms: _177  and  _178
REMARK   71  A    between atoms: _177  and  _180
REMARK   72  A    between atoms: _180  and  _181
REMARK   73  A    between atoms: _191  and  _193
REMARK   74  A    between atoms: _193  and  _194
REMARK   75  A    between atoms: _193  and  _196
REMARK   76  A    between atoms: _199  and  _201
REMARK   77  A    between atoms: _201  and  _202
REMARK   78  A    between atoms: _201  and  _204
REMARK   79  A    between atoms: _206  and  _208
REMARK   80  A    between atoms: _208  and  _209
REMARK   81  A    between atoms: _208  and  _211
REMARK   82  A    between atoms: _211  and  _212
REMARK   83  A    between atoms: _222  and  _224
REMARK   84  A    between atoms: _224  and  _225
REMARK   85  A    between atoms: _224  and  _227
REMARK   86  A    between atoms: _227  and  _228
REMARK   87  A    between atoms: _238  and  _240
REMARK   88  A    between atoms: _240  and  _241
REMARK   89  A    between atoms: _240  and  _243
REMARK   90  A    between atoms: _243  and  _244
REMARK   91  A    between atoms: _244  and  _245
REMARK   92  A    between atoms: _245  and  _246
REMARK   93  A    between atoms: _246  and  _247
REMARK   94  A    between atoms: _251  and  _253
REMARK   95  A    between atoms: _253  and  _254
REMARK   96  A    between atoms: _253  and  _256
REMARK   97  A    between atoms: _256  and  _257
REMARK   98  A    between atoms: _257  and  _258
REMARK   99  A    between atoms: _260  and  _262
REMARK  100  A    between atoms: _262  and  _263
REMARK  101  A    between atoms: _262  and  _265
REMARK  102  A    between atoms: _265  and  _266
REMARK  103  A    between atoms: _269  and  _271
REMARK  104  A    between atoms: _271  and  _272
REMARK  105  A    between atoms: _271  and  _274
REMARK  106  A    between atoms: _277  and  _279
REMARK  107  A    between atoms: _279  and  _280
REMARK  108  A    between atoms: _279  and  _282
REMARK  109  A    between atoms: _282  and  _283
REMARK  110  A    between atoms: _283  and  _284
REMARK  111  A    between atoms: _286  and  _288
REMARK  112  A    between atoms: _288  and  _289
REMARK  113  A    between atoms: _288  and  _291
REMARK  114  A    between atoms: _291  and  _292
REMARK  115  A    between atoms: _297  and  _299
REMARK  116  A    between atoms: _299  and  _300
REMARK  117  A    between atoms: _299  and  _302
REMARK  118  A    between atoms: _302  and  _303
REMARK  119  A    between atoms: _306  and  _307
REMARK  120  A    between atoms: _312  and  _314
REMARK  121  A    between atoms: _314  and  _315
REMARK  122  A    between atoms: _314  and  _317
REMARK  123  A    between atoms: _317  and  _318
REMARK  124  A    between atoms: _320  and  _322
REMARK  125  A    between atoms: _322  and  _323
REMARK  126  A    between atoms: _322  and  _325
REMARK  127  A    between atoms: _328  and  _330
REMARK  128  A    between atoms: _330  and  _331
REMARK  129  A    between atoms: _330  and  _333
REMARK  130  A    between atoms: _333  and  _334
REMARK  131  A    between atoms: _340  and  _342
REMARK  132  A    between atoms: _342  and  _343
REMARK  133  A    between atoms: _342  and  _345
REMARK  134  A    between atoms: _345  and  _346
REMARK                            x       y       z     vdW  Elec       q    Type
REMARK                         _______ _______ _______ _____ _____    ______ ____
ROOT
ATOM      1  CA  VAL A   1       5.018  23.100   5.861  0.00  0.00    +0.133 C 
ENDROOT
BRANCH   1   2
ATOM      2  CB  VAL A   1       5.641  24.455   5.418  0.00  0.00    +0.023 C 
ATOM      3  CG2 VAL A   1       4.556  25.348   4.813  0.00  0.00    +0.002 C 
ATOM      4  CG1 VAL A   1       6.773  24.222   4.412  0.00  0.00    +0.002 C 
ENDBRANCH   1   2
BRANCH   1   5
ATOM      5  N   VAL A   1       5.958  22.276   6.617  0.00  0.00    -0.239 NA
ATOM      6  H   VAL A   1       6.511  21.548   6.121  0.00  0.00    +0.142 HD
ENDBRANCH   1   5
BRANCH   1   7
ATOM      7  C   VAL A   1       4.525  22.382   4.615  0.00  0.00    +0.224 C 
ATOM      8  O   VAL A   1       5.299  21.729   3.903  0.00  0.00    -0.287 OA
ENDBRANCH   1   7
TORSDOF 3
REMARK  Name = ../refined-set-2016/1x8d/1x8d_pocket.pdb
REMARK  134 active torsions:
REMARK  status: ('A' for Active; 'I' for Inactive)
REMARK    1  A    between atoms: _1  and  _3
REMARK    2  A    between atoms: _3  and  _4
REMARK    3  A    between atoms: _3  and  _6
REMARK    4  A    between atoms: _6  and  _7
REMARK    5  A    between atoms: _13  and  _15
REMARK    6  A    between atoms: _15  and  _16
REMARK    7  A    between atoms: _15  and  _18
REMARK    8  A    between atoms: _18  and  _19
REMARK    9  A    between atoms: _19  and  _20
REMARK   10  A    between atoms: _22  and  _24
REMARK   11  A    between atoms: _24  and  _25
REMARK   12  A    between atoms: _24  and  _27
REMARK   13  A    between atoms: _27  and  _28
REMARK   14  A    between atoms: _28  and  _29
REMARK   15  A    between atoms: _34  and  _36
REMARK   16  A    between atoms: _36  and  _37
REMARK   17  A    between atoms: _36  and  _39
REMARK   18  A    between atoms: _39  and  _40
REMARK   19  A    between atoms: _45  and  _46
REMARK   20  A    between atoms: _48  and  _50
REMARK   21  A    between atoms: _50  and  _51
REMARK   22  A    between atoms: _50  and  _53
REMARK   23  A    between atoms: _53  and  _54
REMARK   24  A    between atoms: _54  and  _55
REMARK   25  A    between atoms: _55  and  _56
REMARK   26  A    between atoms: _65  and  _67
REMARK   27  A    between atoms: _67  and  _68
REMARK   28  A    between atoms: _67  and  _70
REMARK   29  A    between atoms: _70  and  _71
REMARK   30  A    between atoms: _76  and  _78
REMARK   31  A    between atoms: _78  and  _79
REMARK   32  A    between atoms: _78  and  _81
REMARK   33  A    between atoms: _81  and  _82
REMARK   34  A    between atoms: _85  and  _87
REMARK   35  A    between atoms: _87  and  _88
REMARK   36  A    between atoms: _87  and  _90
REMARK   37  A    between atoms: _90  and  _91
REMARK   38  A    between atoms: _101  and  _103
REMARK   39  A    between atoms: _103  and  _104
REMARK   40  A    between atoms: _103  and  _106
REMARK   41  A    between atoms: _106  and  _107
REMARK   42  A    between atoms: _110  and  _112
REMARK   43  A    between atoms: _112  and  _113
REMARK   44  A    between atoms: _112  and  _115
REMARK   45  A    between atoms: _115  and  _116
REMARK   46  A    between atoms: _116  and  _117
REMARK   47  A    between atoms: _120  and  _122
REMARK   48  A    between atoms: _122  and  _123
REMARK   49  A    between atoms: _122  and  _125
REMARK   50  A    between atoms: _125  and  _126
REMARK   51  A    between atoms: _129  and  _131
REMARK   52  A    between atoms: _131  and  _132
REMARK   53  A    between atoms: _131  and  _134
REMARK   54  A    between atoms: _134  and  _135
REMARK   55  A    between atoms: _140  and  _141
REMARK   56  A    between atoms: _143  and  _145
REMARK   57  A    between atoms: _145  and  _146
REMARK   58  A    between atoms: _145  and  _148
REMARK   59  A    between atoms: _148  and  _149
REMARK   60  A    between atoms: _152  and  _154
REMARK   61  A    between atoms: _154  and  _155
REMARK   62  A    between atoms: _154  and  _157
REMARK   63  A    between atoms: _157  and  _158
REMARK   64  A    between atoms: _161  and  _163
REMARK   65  A    between atoms: _163  and  _164
REMARK   66  A    between atoms: _167  and  _169
REMARK   67  A    between atoms: _169  and  _170
REMARK   68  A    between atoms: _169  and  _172
REMARK   69  A    between atoms: _175  and  _177
REMARK   70  A    between atoms: _177  and  _178
REMARK   71  A    between atoms: _177  and  _180
REMARK   72  A    between atoms: _180  and  _181
REMARK   73  A    between atoms: _191  and  _193
REMARK   74  A    between atoms: _193  and  _194
REMARK   75  A    between atoms: _193  and  _196
REMARK   76  A    between atoms: _199  and  _201
REMARK   77  A    between atoms: _201  and  _202
REMARK   78  A    between atoms: _201  and  _204
REMARK   79  A    between atoms: _206  and  _208
REMARK   80  A    between atoms: _208  and  _209
REMARK   81  A    between atoms: _208  and  _211
REMARK   82  A    between atoms: _211  and  _212
REMARK   83  A    between atoms: _222  and  _224
REMARK   84  A    between atoms: _224  and  _225
REMARK   85  A    between atoms: _224  and  _227
REMARK   86  A    between atoms: _227  and  _228
REMARK   87  A    between atoms: _238  and  _240
REMARK   88  A    between atoms: _240  and  _241
REMARK   89  A    between atoms: _240  and  _243
REMARK   90  A    between atoms: _243  and  _244
REMARK   91  A    between atoms: _244  and  _245
REMARK   92  A    between atoms: _245  and  _246
REMARK   93  A    between atoms: _246  and  _247
REMARK   94  A    between atoms: _251  and  _253
REMARK   95  A    between atoms: _253  and  _254
REMARK   96  A    between atoms: _253  and  _256
REMARK   97  A    between atoms: _256  and  _257
REMARK   98  A    between atoms: _257  and  _258
REMARK   99  A    between atoms: _260  and  _262
REMARK  100  A    between atoms: _262  and  _263
REMARK  101  A    between atoms: _262  and  _265
REMARK  102  A    between atoms: _265  and  _266
REMARK  103  A    between atoms: _269  and  _271
REMARK  104  A    between atoms: _271  and  _272
REMARK  105  A    between atoms: _271  and  _274
REMARK  106  A    between atoms: _277  and  _279
REMARK  107  A    between atoms: _279  and  _280
REMARK  108  A    between atoms: _279  and  _282
REMARK  109  A    between atoms: _282  and  _283
REMARK  110  A    between atoms: _283  and  _284
REMARK  111  A    between atoms: _286  and  _288
REMARK  112  A    between atoms: _288  and  _289
REMARK  113  A    between atoms: _288  and  _291
REMARK  114  A    between atoms: _291  and  _292
REMARK  115  A    between atoms: _297  and  _299
REMARK  116  A    between atoms: _299  and  _300
REMARK  117  A    between atoms: _299  and  _302
REMARK  118  A    between atoms: _302  and  _303
REMARK  119  A    between atoms: _306  and  _307
REMARK  120  A    between atoms: _312  and  _314
REMARK  121  A    between atoms: _314  and  _315
REMARK  122  A    between atoms: _314  and  _317
REMARK  123  A    between atoms: _317  and  _318
REMARK  124  A    between atoms: _320  and  _322
REMARK  125  A    between atoms: _322  and  _323
REMARK  126  A    between atoms: _322  and  _325
REMARK  127  A    between atoms: _328  and  _330
REMARK  128  A    between atoms: _330  and  _331
REMARK  129  A    between atoms: _330  and  _333
REMARK  130  A    between atoms: _333  and  _334
REMARK  131  A    between atoms: _340  and  _342
REMARK  132  A    between atoms: _342  and  _343
REMARK  133  A    between atoms: _342  and  _345
REMARK  134  A    between atoms: _345  and  _346
REMARK                            x       y       z     vdW  Elec       q    Type
REMARK                         _______ _______ _______ _____ _____    ______ ____
ROOT
ATOM      1  CG  TRP A   1       8.042  26.964  -0.402  0.00  0.00    -0.002 A 
ATOM      2  CD2 TRP A   1       7.571  27.551   0.823  0.00  0.00    +0.013 A 
ATOM      3  CE2 TRP A   1       8.518  27.249   1.818  0.00  0.00    +0.056 A 
ATOM      4  CZ2 TRP A   1       8.369  27.669   3.147  0.00  0.00    +0.017 A 
ATOM      5  CH2 TRP A   1       7.255  28.403   3.461  0.00  0.00    +0.001 A 
ATOM      6  CZ3 TRP A   1       6.296  28.722   2.493  0.00  0.00    +0.000 A 
ATOM      7  NE1 TRP A   1       9.511  26.517   1.226  0.00  0.00    -0.352 N 
ATOM      8  HE1 TRP A   1      10.354  26.145   1.708  0.00  0.00    +0.166 HD
ATOM      9  CE3 TRP A   1       6.443  28.304   1.170  0.00  0.00    +0.001 A 
ATOM     10  CD1 TRP A   1       9.217  26.352  -0.105  0.00  0.00    +0.068 A 
ENDROOT
BRANCH   1  11
ATOM     11  CB  TRP A   1       7.377  27.016  -1.733  0.00  0.00    +0.053 C 
BRANCH  11  12
ATOM     12  CA  TRP A   1       7.310  28.420  -2.321  0.00  0.00    +0.137 C 
BRANCH  12  13
ATOM     13  N   TRP A   1       6.724  28.375  -3.654  0.00  0.00    -0.239 NA
ATOM     14  H   TRP A   1       6.434  27.462  -4.058  0.00  0.00    +0.142 HD
ENDBRANCH  12  13
BRANCH  12  15
ATOM     15  C   TRP A   1       8.710  29.021  -2.437  0.00  0.00    +0.224 C 
ATOM     16  O   TRP A   1       9.082  29.903  -1.660  0.00  0.00    -0.287 OA
ENDBRANCH  12  15
ENDBRANCH  11  12
ENDBRANCH   1  11
TORSDOF 4
REMARK  Name = ../refined-set-2016/1x8d/1x8d_pocket.pdb
REMARK  134 active torsions:
REMARK  status: ('A' for Active; 'I' for Inactive)
REMARK    1  A    between atoms: _1  and  _3
REMARK    2  A    between atoms: _3  and  _4
REMARK    3  A    between atoms: _3  and  _6
REMARK    4  A    between atoms: _6  and  _7
REMARK    5  A    between atoms: _13  and  _15
REMARK    6  A    between atoms: _15  and  _16
REMARK    7  A    between atoms: _15  and  _18
REMARK    8  A    between atoms: _18  and  _19
REMARK    9  A    between atoms: _19  and  _20
REMARK   10  A    between atoms: _22  and  _24
REMARK   11  A    between atoms: _24  and  _25
REMARK   12  A    between atoms: _24  and  _27
REMARK   13  A    between atoms: _27  and  _28
REMARK   14  A    between atoms: _28  and  _29
REMARK   15  A    between atoms: _34  and  _36
REMARK   16  A    between atoms: _36  and  _37
REMARK   17  A    between atoms: _36  and  _39
REMARK   18  A    between atoms: _39  and  _40
REMARK   19  A    between atoms: _45  and  _46
REMARK   20  A    between atoms: _48  and  _50
REMARK   21  A    between atoms: _50  and  _51
REMARK   22  A    between atoms: _50  and  _53
REMARK   23  A    between atoms: _53  and  _54
REMARK   24  A    between atoms: _54  and  _55
REMARK   25  A    between atoms: _55  and  _56
REMARK   26  A    between atoms: _65  and  _67
REMARK   27  A    between atoms: _67  and  _68
REMARK   28  A    between atoms: _67  and  _70
REMARK   29  A    between atoms: _70  and  _71
REMARK   30  A    between atoms: _76  and  _78
REMARK   31  A    between atoms: _78  and  _79
REMARK   32  A    between atoms: _78  and  _81
REMARK   33  A    between atoms: _81  and  _82
REMARK   34  A    between atoms: _85  and  _87
REMARK   35  A    between atoms: _87  and  _88
REMARK   36  A    between atoms: _87  and  _90
REMARK   37  A    between atoms: _90  and  _91
REMARK   38  A    between atoms: _101  and  _103
REMARK   39  A    between atoms: _103  and  _104
REMARK   40  A    between atoms: _103  and  _106
REMARK   41  A    between atoms: _106  and  _107
REMARK   42  A    between atoms: _110  and  _112
REMARK   43  A    between atoms: _112  and  _113
REMARK   44  A    between atoms: _112  and  _115
REMARK   45  A    between atoms: _115  and  _116
REMARK   46  A    between atoms: _116  and  _117
REMARK   47  A    between atoms: _120  and  _122
REMARK   48  A    between atoms: _122  and  _123
REMARK   49  A    between atoms: _122  and  _125
REMARK   50  A    between atoms: _125  and  _126
REMARK   51  A    between atoms: _129  and  _131
REMARK   52  A    between atoms: _131  and  _132
REMARK   53  A    between atoms: _131  and  _134
REMARK   54  A    between atoms: _134  and  _135
REMARK   55  A    between atoms: _140  and  _141
REMARK   56  A    between atoms: _143  and  _145
REMARK   57  A    between atoms: _145  and  _146
REMARK   58  A    between atoms: _145  and  _148
REMARK   59  A    between atoms: _148  and  _149
REMARK   60  A    between atoms: _152  and  _154
REMARK   61  A    between atoms: _154  and  _155
REMARK   62  A    between atoms: _154  and  _157
REMARK   63  A    between atoms: _157  and  _158
REMARK   64  A    between atoms: _161  and  _163
REMARK   65  A    between atoms: _163  and  _164
REMARK   66  A    between atoms: _167  and  _169
REMARK   67  A    between atoms: _169  and  _170
REMARK   68  A    between atoms: _169  and  _172
REMARK   69  A    between atoms: _175  and  _177
REMARK   70  A    between atoms: _177  and  _178
REMARK   71  A    between atoms: _177  and  _180
REMARK   72  A    between atoms: _180  and  _181
REMARK   73  A    between atoms: _191  and  _193
REMARK   74  A    between atoms: _193  and  _194
REMARK   75  A    between atoms: _193  and  _196
REMARK   76  A    between atoms: _199  and  _201
REMARK   77  A    between atoms: _201  and  _202
REMARK   78  A    between atoms: _201  and  _204
REMARK   79  A    between atoms: _206  and  _208
REMARK   80  A    between atoms: _208  and  _209
REMARK   81  A    between atoms: _208  and  _211
REMARK   82  A    between atoms: _211  and  _212
REMARK   83  A    between atoms: _222  and  _224
REMARK   84  A    between atoms: _224  and  _225
REMARK   85  A    between atoms: _224  and  _227
REMARK   86  A    between atoms: _227  and  _228
REMARK   87  A    between atoms: _238  and  _240
REMARK   88  A    between atoms: _240  and  _241
REMARK   89  A    between atoms: _240  and  _243
REMARK   90  A    between atoms: _243  and  _244
REMARK   91  A    between atoms: _244  and  _245
REMARK   92  A    between atoms: _245  and  _246
REMARK   93  A    between atoms: _246  and  _247
REMARK   94  A    between atoms: _251  and  _253
REMARK   95  A    between atoms: _253  and  _254
REMARK   96  A    between atoms: _253  and  _256
REMARK   97  A    between atoms: _256  and  _257
REMARK   98  A    between atoms: _257  and  _258
REMARK   99  A    between atoms: _260  and  _262
REMARK  100  A    between atoms: _262  and  _263
REMARK  101  A    between atoms: _262  and  _265
REMARK  102  A    between atoms: _265  and  _266
REMARK  103  A    between atoms: _269  and  _271
REMARK  104  A    between atoms: _271  and  _272
REMARK  105  A    between atoms: _271  and  _274
REMARK  106  A    between atoms: _277  and  _279
REMARK  107  A    between atoms: _279  and  _280
REMARK  108  A    between atoms: _279  and  _282
REMARK  109  A    between atoms: _282  and  _283
REMARK  110  A    between atoms: _283  and  _284
REMARK  111  A    between atoms: _286  and  _288
REMARK  112  A    between atoms: _288  and  _289
REMARK  113  A    between atoms: _288  and  _291
REMARK  114  A    between atoms: _291  and  _292
REMARK  115  A    between atoms: _297  and  _299
REMARK  116  A    between atoms: _299  and  _300
REMARK  117  A    between atoms: _299  and  _302
REMARK  118  A    between atoms: _302  and  _303
REMARK  119  A    between atoms: _306  and  _307
REMARK  120  A    between atoms: _312  and  _314
REMARK  121  A    between atoms: _314  and  _315
REMARK  122  A    between atoms: _314  and  _317
REMARK  123  A    between atoms: _317  and  _318
REMARK  124  A    between atoms: _320  and  _322
REMARK  125  A    between atoms: _322  and  _323
REMARK  126  A    between atoms: _322  and  _325
REMARK  127  A    between atoms: _328  and  _330
REMARK  128  A    between atoms: _330  and  _331
REMARK  129  A    between atoms: _330  and  _333
REMARK  130  A    between atoms: _333  and  _334
REMARK  131  A    between atoms: _340  and  _342
REMARK  132  A    between atoms: _342  and  _343
REMARK  133  A    between atoms: _342  and  _345
REMARK  134  A    between atoms: _345  and  _346
REMARK                            x       y       z     vdW  Elec       q    Type
REMARK                         _______ _______ _______ _____ _____    ______ ____
ROOT
ATOM      1  CA  VAL A   1       9.027  33.762  -1.497  0.00  0.00    +0.133 C 
ENDROOT
BRANCH   1   2
ATOM      2  CB  VAL A   1       8.612  32.982  -0.242  0.00  0.00    +0.023 C 
ATOM      3  CG2 VAL A   1       8.414  33.948   0.914  0.00  0.00    +0.002 C 
ATOM      4  CG1 VAL A   1       7.310  32.222  -0.507  0.00  0.00    +0.002 C 
ENDBRANCH   1   2
BRANCH   1   5
ATOM      5  N   VAL A   1       9.203  32.888  -2.647  0.00  0.00    -0.239 NA
ATOM      6  H   VAL A   1       9.087  31.860  -2.542  0.00  0.00    +0.142 HD
ENDBRANCH   1   5
BRANCH   1   7
ATOM      7  C   VAL A   1      10.303  34.542  -1.213  0.00  0.00    +0.224 C 
ATOM      8  O   VAL A   1      10.243  35.706  -0.835  0.00  0.00    -0.287 OA
ENDBRANCH   1   7
TORSDOF 3
REMARK  Name = ../refined-set-2016/1x8d/1x8d_pocket.pdb
REMARK  134 active torsions:
REMARK  status: ('A' for Active; 'I' for Inactive)
REMARK    1  A    between atoms: _1  and  _3
REMARK    2  A    between atoms: _3  and  _4
REMARK    3  A    between atoms: _3  and  _6
REMARK    4  A    between atoms: _6  and  _7
REMARK    5  A    between atoms: _13  and  _15
REMARK    6  A    between atoms: _15  and  _16
REMARK    7  A    between atoms: _15  and  _18
REMARK    8  A    between atoms: _18  and  _19
REMARK    9  A    between atoms: _19  and  _20
REMARK   10  A    between atoms: _22  and  _24
REMARK   11  A    between atoms: _24  and  _25
REMARK   12  A    between atoms: _24  and  _27
REMARK   13  A    between atoms: _27  and  _28
REMARK   14  A    between atoms: _28  and  _29
REMARK   15  A    between atoms: _34  and  _36
REMARK   16  A    between atoms: _36  and  _37
REMARK   17  A    between atoms: _36  and  _39
REMARK   18  A    between atoms: _39  and  _40
REMARK   19  A    between atoms: _45  and  _46
REMARK   20  A    between atoms: _48  and  _50
REMARK   21  A    between atoms: _50  and  _51
REMARK   22  A    between atoms: _50  and  _53
REMARK   23  A    between atoms: _53  and  _54
REMARK   24  A    between atoms: _54  and  _55
REMARK   25  A    between atoms: _55  and  _56
REMARK   26  A    between atoms: _65  and  _67
REMARK   27  A    between atoms: _67  and  _68
REMARK   28  A    between atoms: _67  and  _70
REMARK   29  A    between atoms: _70  and  _71
REMARK   30  A    between atoms: _76  and  _78
REMARK   31  A    between atoms: _78  and  _79
REMARK   32  A    between atoms: _78  and  _81
REMARK   33  A    between atoms: _81  and  _82
REMARK   34  A    between atoms: _85  and  _87
REMARK   35  A    between atoms: _87  and  _88
REMARK   36  A    between atoms: _87  and  _90
REMARK   37  A    between atoms: _90  and  _91
REMARK   38  A    between atoms: _101  and  _103
REMARK   39  A    between atoms: _103  and  _104
REMARK   40  A    between atoms: _103  and  _106
REMARK   41  A    between atoms: _106  and  _107
REMARK   42  A    between atoms: _110  and  _112
REMARK   43  A    between atoms: _112  and  _113
REMARK   44  A    between atoms: _112  and  _115
REMARK   45  A    between atoms: _115  and  _116
REMARK   46  A    between atoms: _116  and  _117
REMARK   47  A    between atoms: _120  and  _122
REMARK   48  A    between atoms: _122  and  _123
REMARK   49  A    between atoms: _122  and  _125
REMARK   50  A    between atoms: _125  and  _126
REMARK   51  A    between atoms: _129  and  _131
REMARK   52  A    between atoms: _131  and  _132
REMARK   53  A    between atoms: _131  and  _134
REMARK   54  A    between atoms: _134  and  _135
REMARK   55  A    between atoms: _140  and  _141
REMARK   56  A    between atoms: _143  and  _145
REMARK   57  A    between atoms: _145  and  _146
REMARK   58  A    between atoms: _145  and  _148
REMARK   59  A    between atoms: _148  and  _149
REMARK   60  A    between atoms: _152  and  _154
REMARK   61  A    between atoms: _154  and  _155
REMARK   62  A    between atoms: _154  and  _157
REMARK   63  A    between atoms: _157  and  _158
REMARK   64  A    between atoms: _161  and  _163
REMARK   65  A    between atoms: _163  and  _164
REMARK   66  A    between atoms: _167  and  _169
REMARK   67  A    between atoms: _169  and  _170
REMARK   68  A    between atoms: _169  and  _172
REMARK   69  A    between atoms: _175  and  _177
REMARK   70  A    between atoms: _177  and  _178
REMARK   71  A    between atoms: _177  and  _180
REMARK   72  A    between atoms: _180  and  _181
REMARK   73  A    between atoms: _191  and  _193
REMARK   74  A    between atoms: _193  and  _194
REMARK   75  A    between atoms: _193  and  _196
REMARK   76  A    between atoms: _199  and  _201
REMARK   77  A    between atoms: _201  and  _202
REMARK   78  A    between atoms: _201  and  _204
REMARK   79  A    between atoms: _206  and  _208
REMARK   80  A    between atoms: _208  and  _209
REMARK   81  A    between atoms: _208  and  _211
REMARK   82  A    between atoms: _211  and  _212
REMARK   83  A    between atoms: _222  and  _224
REMARK   84  A    between atoms: _224  and  _225
REMARK   85  A    between atoms: _224  and  _227
REMARK   86  A    between atoms: _227  and  _228
REMARK   87  A    between atoms: _238  and  _240
REMARK   88  A    between atoms: _240  and  _241
REMARK   89  A    between atoms: _240  and  _243
REMARK   90  A    between atoms: _243  and  _244
REMARK   91  A    between atoms: _244  and  _245
REMARK   92  A    between atoms: _245  and  _246
REMARK   93  A    between atoms: _246  and  _247
REMARK   94  A    between atoms: _251  and  _253
REMARK   95  A    between atoms: _253  and  _254
REMARK   96  A    between atoms: _253  and  _256
REMARK   97  A    between atoms: _256  and  _257
REMARK   98  A    between atoms: _257  and  _258
REMARK   99  A    between atoms: _260  and  _262
REMARK  100  A    between atoms: _262  and  _263
REMARK  101  A    between atoms: _262  and  _265
REMARK  102  A    between atoms: _265  and  _266
REMARK  103  A    between atoms: _269  and  _271
REMARK  104  A    between atoms: _271  and  _272
REMARK  105  A    between atoms: _271  and  _274
REMARK  106  A    between atoms: _277  and  _279
REMARK  107  A    between atoms: _279  and  _280
REMARK  108  A    between atoms: _279  and  _282
REMARK  109  A    between atoms: _282  and  _283
REMARK  110  A    between atoms: _283  and  _284
REMARK  111  A    between atoms: _286  and  _288
REMARK  112  A    between atoms: _288  and  _289
REMARK  113  A    between atoms: _288  and  _291
REMARK  114  A    between atoms: _291  and  _292
REMARK  115  A    between atoms: _297  and  _299
REMARK  116  A    between atoms: _299  and  _300
REMARK  117  A    between atoms: _299  and  _302
REMARK  118  A    between atoms: _302  and  _303
REMARK  119  A    between atoms: _306  and  _307
REMARK  120  A    between atoms: _312  and  _314
REMARK  121  A    between atoms: _314  and  _315
REMARK  122  A    between atoms: _314  and  _317
REMARK  123  A    between atoms: _317  and  _318
REMARK  124  A    between atoms: _320  and  _322
REMARK  125  A    between atoms: _322  and  _323
REMARK  126  A    between atoms: _322  and  _325
REMARK  127  A    between atoms: _328  and  _330
REMARK  128  A    between atoms: _330  and  _331
REMARK  129  A    between atoms: _330  and  _333
REMARK  130  A    between atoms: _333  and  _334
REMARK  131  A    between atoms: _340  and  _342
REMARK  132  A    between atoms: _342  and  _343
REMARK  133  A    between atoms: _342  and  _345
REMARK  134  A    between atoms: _345  and  _346
REMARK                            x       y       z     vdW  Elec       q    Type
REMARK                         _______ _______ _______ _____ _____    ______ ____
ROOT
ATOM      1  CA  CYS A   1      10.638  37.948   3.017  0.00  0.00    +0.145 C 
ENDROOT
BRANCH   1   2
ATOM      2  N   CYS A   1       9.869  39.077   2.494  0.00  0.00    -0.238 NA
ATOM      3  H   CYS A   1       9.458  39.040   1.539  0.00  0.00    +0.142 HD
ENDBRANCH   1   2
BRANCH   1   4
ATOM      4  C   CYS A   1      12.084  38.378   3.164  0.00  0.00    +0.225 C 
ATOM      5  O   CYS A   1      12.766  37.976   4.106  0.00  0.00    -0.287 OA
ENDBRANCH   1   4
BRANCH   1   6
ATOM      6  CB  CYS A   1      10.571  36.720   2.108  0.00  0.00    +0.094 C 
ATOM      7  SG  CYS A   1      11.442  35.245   2.805  0.00  0.00    -0.080 S 
ENDBRANCH   1   6
TORSDOF 3
REMARK  Name = ../refined-set-2016/1x8d/1x8d_pocket.pdb
REMARK  134 active torsions:
REMARK  status: ('A' for Active; 'I' for Inactive)
REMARK    1  A    between atoms: _1  and  _3
REMARK    2  A    between atoms: _3  and  _4
REMARK    3  A    between atoms: _3  and  _6
REMARK    4  A    between atoms: _6  and  _7
REMARK    5  A    between atoms: _13  and  _15
REMARK    6  A    between atoms: _15  and  _16
REMARK    7  A    between atoms: _15  and  _18
REMARK    8  A    between atoms: _18  and  _19
REMARK    9  A    between atoms: _19  and  _20
REMARK   10  A    between atoms: _22  and  _24
REMARK   11  A    between atoms: _24  and  _25
REMARK   12  A    between atoms: _24  and  _27
REMARK   13  A    between atoms: _27  and  _28
REMARK   14  A    between atoms: _28  and  _29
REMARK   15  A    between atoms: _34  and  _36
REMARK   16  A    between atoms: _36  and  _37
REMARK   17  A    between atoms: _36  and  _39
REMARK   18  A    between atoms: _39  and  _40
REMARK   19  A    between atoms: _45  and  _46
REMARK   20  A    between atoms: _48  and  _50
REMARK   21  A    between atoms: _50  and  _51
REMARK   22  A    between atoms: _50  and  _53
REMARK   23  A    between atoms: _53  and  _54
REMARK   24  A    between atoms: _54  and  _55
REMARK   25  A    between atoms: _55  and  _56
REMARK   26  A    between atoms: _65  and  _67
REMARK   27  A    between atoms: _67  and  _68
REMARK   28  A    between atoms: _67  and  _70
REMARK   29  A    between atoms: _70  and  _71
REMARK   30  A    between atoms: _76  and  _78
REMARK   31  A    between atoms: _78  and  _79
REMARK   32  A    between atoms: _78  and  _81
REMARK   33  A    between atoms: _81  and  _82
REMARK   34  A    between atoms: _85  and  _87
REMARK   35  A    between atoms: _87  and  _88
REMARK   36  A    between atoms: _87  and  _90
REMARK   37  A    between atoms: _90  and  _91
REMARK   38  A    between atoms: _101  and  _103
REMARK   39  A    between atoms: _103  and  _104
REMARK   40  A    between atoms: _103  and  _106
REMARK   41  A    between atoms: _106  and  _107
REMARK   42  A    between atoms: _110  and  _112
REMARK   43  A    between atoms: _112  and  _113
REMARK   44  A    between atoms: _112  and  _115
REMARK   45  A    between atoms: _115  and  _116
REMARK   46  A    between atoms: _116  and  _117
REMARK   47  A    between atoms: _120  and  _122
REMARK   48  A    between atoms: _122  and  _123
REMARK   49  A    between atoms: _122  and  _125
REMARK   50  A    between atoms: _125  and  _126
REMARK   51  A    between atoms: _129  and  _131
REMARK   52  A    between atoms: _131  and  _132
REMARK   53  A    between atoms: _131  and  _134
REMARK   54  A    between atoms: _134  and  _135
REMARK   55  A    between atoms: _140  and  _141
REMARK   56  A    between atoms: _143  and  _145
REMARK   57  A    between atoms: _145  and  _146
REMARK   58  A    between atoms: _145  and  _148
REMARK   59  A    between atoms: _148  and  _149
REMARK   60  A    between atoms: _152  and  _154
REMARK   61  A    between atoms: _154  and  _155
REMARK   62  A    between atoms: _154  and  _157
REMARK   63  A    between atoms: _157  and  _158
REMARK   64  A    between atoms: _161  and  _163
REMARK   65  A    between atoms: _163  and  _164
REMARK   66  A    between atoms: _167  and  _169
REMARK   67  A    between atoms: _169  and  _170
REMARK   68  A    between atoms: _169  and  _172
REMARK   69  A    between atoms: _175  and  _177
REMARK   70  A    between atoms: _177  and  _178
REMARK   71  A    between atoms: _177  and  _180
REMARK   72  A    between atoms: _180  and  _181
REMARK   73  A    between atoms: _191  and  _193
REMARK   74  A    between atoms: _193  and  _194
REMARK   75  A    between atoms: _193  and  _196
REMARK   76  A    between atoms: _199  and  _201
REMARK   77  A    between atoms: _201  and  _202
REMARK   78  A    between atoms: _201  and  _204
REMARK   79  A    between atoms: _206  and  _208
REMARK   80  A    between atoms: _208  and  _209
REMARK   81  A    between atoms: _208  and  _211
REMARK   82  A    between atoms: _211  and  _212
REMARK   83  A    between atoms: _222  and  _224
REMARK   84  A    between atoms: _224  and  _225
REMARK   85  A    between atoms: _224  and  _227
REMARK   86  A    between atoms: _227  and  _228
REMARK   87  A    between atoms: _238  and  _240
REMARK   88  A    between atoms: _240  and  _241
REMARK   89  A    between atoms: _240  and  _243
REMARK   90  A    between atoms: _243  and  _244
REMARK   91  A    between atoms: _244  and  _245
REMARK   92  A    between atoms: _245  and  _246
REMARK   93  A    between atoms: _246  and  _247
REMARK   94  A    between atoms: _251  and  _253
REMARK   95  A    between atoms: _253  and  _254
REMARK   96  A    between atoms: _253  and  _256
REMARK   97  A    between atoms: _256  and  _257
REMARK   98  A    between atoms: _257  and  _258
REMARK   99  A    between atoms: _260  and  _262
REMARK  100  A    between atoms: _262  and  _263
REMARK  101  A    between atoms: _262  and  _265
REMARK  102  A    between atoms: _265  and  _266
REMARK  103  A    between atoms: _269  and  _271
REMARK  104  A    between atoms: _271  and  _272
REMARK  105  A    between atoms: _271  and  _274
REMARK  106  A    between atoms: _277  and  _279
REMARK  107  A    between atoms: _279  and  _280
REMARK  108  A    between atoms: _279  and  _282
REMARK  109  A    between atoms: _282  and  _283
REMARK  110  A    between atoms: _283  and  _284
REMARK  111  A    between atoms: _286  and  _288
REMARK  112  A    between atoms: _288  and  _289
REMARK  113  A    between atoms: _288  and  _291
REMARK  114  A    between atoms: _291  and  _292
REMARK  115  A    between atoms: _297  and  _299
REMARK  116  A    between atoms: _299  and  _300
REMARK  117  A    between atoms: _299  and  _302
REMARK  118  A    between atoms: _302  and  _303
REMARK  119  A    between atoms: _306  and  _307
REMARK  120  A    between atoms: _312  and  _314
REMARK  121  A    between atoms: _314  and  _315
REMARK  122  A    between atoms: _314  and  _317
REMARK  123  A    between atoms: _317  and  _318
REMARK  124  A    between atoms: _320  and  _322
REMARK  125  A    between atoms: _322  and  _323
REMARK  126  A    between atoms: _322  and  _325
REMARK  127  A    between atoms: _328  and  _330
REMARK  128  A    between atoms: _330  and  _331
REMARK  129  A    between atoms: _330  and  _333
REMARK  130  A    between atoms: _333  and  _334
REMARK  131  A    between atoms: _340  and  _342
REMARK  132  A    between atoms: _342  and  _343
REMARK  133  A    between atoms: _342  and  _345
REMARK  134  A    between atoms: _345  and  _346
REMARK                            x       y       z     vdW  Elec       q    Type
REMARK                         _______ _______ _______ _____ _____    ______ ____
ROOT
ATOM      1  CA  TRP A   2      15.230  37.489   6.875  0.00  0.00    +0.153 C 
ENDROOT
BRANCH   1   4
ATOM      2  C   TRP A   1      13.365  38.830   7.681  0.00  0.00    +0.239 C 
ATOM      3  O   TRP A   1      13.806  38.837   8.835  0.00  0.00    -0.274 OA
ATOM      4  N   TRP A   2      13.981  38.210   6.674  0.00  0.00    -0.297 N 
ATOM      5  H   TRP A   2      13.560  38.242   5.724  0.00  0.00    +0.150 HD
BRANCH   2   6
ATOM      6  CA  TRP A   1      12.061  39.561   7.333  0.00  0.00    +0.149 C 
BRANCH   6   7
ATOM      7  N   TRP A   1      12.323  40.425   6.182  0.00  0.00    -0.238 NA
ATOM      8  H   TRP A   1      11.849  40.234   5.276  0.00  0.00    +0.142 HD
ENDBRANCH   6   7
BRANCH   6   9
ATOM      9  CB  TRP A   1      10.978  38.541   7.005  0.00  0.00    +0.054 C 
BRANCH   9  10
ATOM     10  CG  TRP A   1      10.780  37.497   8.071  0.00  0.00    -0.002 A 
ATOM     11  CD2 TRP A   1      10.094  37.664   9.319  0.00  0.00    +0.013 A 
ATOM     12  CE2 TRP A   1      10.142  36.423   9.995  0.00  0.00    +0.056 A 
ATOM     13  CZ2 TRP A   1       9.556  36.233  11.262  0.00  0.00    +0.017 A 
ATOM     14  CH2 TRP A   1       8.923  37.307  11.843  0.00  0.00    +0.001 A 
ATOM     15  CZ3 TRP A   1       8.857  38.554  11.198  0.00  0.00    +0.000 A 
ATOM     16  NE1 TRP A   1      10.826  35.543   9.199  0.00  0.00    -0.352 N 
ATOM     17  HE1 TRP A   1      11.024  34.548   9.429  0.00  0.00    +0.166 HD
ATOM     18  CE3 TRP A   1       9.441  38.744   9.932  0.00  0.00    +0.001 A 
ATOM     19  CD1 TRP A   1      11.210  36.189   8.044  0.00  0.00    +0.068 A 
ENDBRANCH   9  10
ENDBRANCH   6   9
ENDBRANCH   2   6
ENDBRANCH   1   4
BRANCH   1  20
ATOM     20  C   TRP A   2      16.373  38.390   7.347  0.00  0.00    +0.241 C 
ATOM     21  O   TRP A   2      17.210  37.973   8.155  0.00  0.00    -0.273 OA
ATOM     22  N   LYS A   3      16.420  39.624   6.855  0.00  0.00    -0.298 N 
ATOM     23  H   LYS A   3      15.713  39.929   6.156  0.00  0.00    +0.150 HD
BRANCH  22  24
ATOM     24  CA  LYS A   3      17.461  40.555   7.292  0.00  0.00    +0.137 C 
BRANCH  24  25
ATOM     25  C   LYS A   3      17.199  40.770   8.780  0.00  0.00    +0.227 C 
ATOM     26  O   LYS A   3      18.110  40.693   9.605  0.00  0.00    -0.286 OA
ENDBRANCH  24  25
BRANCH  24  27
ATOM     27  CB  LYS A   3      17.343  41.898   6.549  0.00  0.00    +0.028 C 
BRANCH  27  28
ATOM     28  CG  LYS A   3      18.322  43.000   7.012  0.00  0.00    -0.000 C 
BRANCH  28  29
ATOM     29  CD  LYS A   3      18.153  44.264   6.172  0.00  0.00    -0.024 C 
BRANCH  29  30
ATOM     30  CE  LYS A   3      19.097  45.390   6.596  0.00  0.00    -0.086 C 
BRANCH  30  31
ATOM     31  NZ  LYS A   3      18.939  45.769   8.026  0.00  0.00    +0.380 N 
ATOM     32  HZ1 LYS A   3      19.139  44.944   8.626  0.00  0.00    -0.089 HD
ATOM     33  HZ2 LYS A   3      19.603  46.535   8.256  0.00  0.00    -0.089 HD
ATOM     34  HZ3 LYS A   3      17.964  46.092   8.192  0.00  0.00    -0.089 HD
ENDBRANCH  30  31
ENDBRANCH  29  30
ENDBRANCH  28  29
ENDBRANCH  27  28
ENDBRANCH  24  27
ENDBRANCH  22  24
ENDBRANCH   1  20
BRANCH   1  35
ATOM     35  CB  TRP A   2      15.608  36.723   5.599  0.00  0.00    +0.057 C 
BRANCH  35  36
ATOM     36  CG  TRP A   2      14.776  35.466   5.390  0.00  0.00    -0.002 A 
ATOM     37  CD1 TRP A   2      13.987  34.836   6.322  0.00  0.00    +0.068 A 
ATOM     38  NE1 TRP A   2      13.446  33.686   5.792  0.00  0.00    -0.352 N 
ATOM     39  HE1 TRP A   2      12.813  33.029   6.292  0.00  0.00    +0.166 HD
ATOM     40  CE2 TRP A   2      13.877  33.547   4.497  0.00  0.00    +0.056 A 
ATOM     41  CZ2 TRP A   2      13.603  32.540   3.555  0.00  0.00    +0.017 A 
ATOM     42  CH2 TRP A   2      14.183  32.654   2.311  0.00  0.00    +0.001 A 
ATOM     43  CZ3 TRP A   2      15.025  33.743   1.986  0.00  0.00    +0.000 A 
ATOM     44  CE3 TRP A   2      15.298  34.750   2.925  0.00  0.00    +0.001 A 
ATOM     45  CD2 TRP A   2      14.718  34.654   4.205  0.00  0.00    +0.013 A 
ENDBRANCH  35  36
ENDBRANCH   1  35
TORSDOF 15
REMARK  Name = ../refined-set-2016/1x8d/1x8d_pocket.pdb
REMARK  134 active torsions:
REMARK  status: ('A' for Active; 'I' for Inactive)
REMARK    1  A    between atoms: _1  and  _3
REMARK    2  A    between atoms: _3  and  _4
REMARK    3  A    between atoms: _3  and  _6
REMARK    4  A    between atoms: _6  and  _7
REMARK    5  A    between atoms: _13  and  _15
REMARK    6  A    between atoms: _15  and  _16
REMARK    7  A    between atoms: _15  and  _18
REMARK    8  A    between atoms: _18  and  _19
REMARK    9  A    between atoms: _19  and  _20
REMARK   10  A    between atoms: _22  and  _24
REMARK   11  A    between atoms: _24  and  _25
REMARK   12  A    between atoms: _24  and  _27
REMARK   13  A    between atoms: _27  and  _28
REMARK   14  A    between atoms: _28  and  _29
REMARK   15  A    between atoms: _34  and  _36
REMARK   16  A    between atoms: _36  and  _37
REMARK   17  A    between atoms: _36  and  _39
REMARK   18  A    between atoms: _39  and  _40
REMARK   19  A    between atoms: _45  and  _46
REMARK   20  A    between atoms: _48  and  _50
REMARK   21  A    between atoms: _50  and  _51
REMARK   22  A    between atoms: _50  and  _53
REMARK   23  A    between atoms: _53  and  _54
REMARK   24  A    between atoms: _54  and  _55
REMARK   25  A    between atoms: _55  and  _56
REMARK   26  A    between atoms: _65  and  _67
REMARK   27  A    between atoms: _67  and  _68
REMARK   28  A    between atoms: _67  and  _70
REMARK   29  A    between atoms: _70  and  _71
REMARK   30  A    between atoms: _76  and  _78
REMARK   31  A    between atoms: _78  and  _79
REMARK   32  A    between atoms: _78  and  _81
REMARK   33  A    between atoms: _81  and  _82
REMARK   34  A    between atoms: _85  and  _87
REMARK   35  A    between atoms: _87  and  _88
REMARK   36  A    between atoms: _87  and  _90
REMARK   37  A    between atoms: _90  and  _91
REMARK   38  A    between atoms: _101  and  _103
REMARK   39  A    between atoms: _103  and  _104
REMARK   40  A    between atoms: _103  and  _106
REMARK   41  A    between atoms: _106  and  _107
REMARK   42  A    between atoms: _110  and  _112
REMARK   43  A    between atoms: _112  and  _113
REMARK   44  A    between atoms: _112  and  _115
REMARK   45  A    between atoms: _115  and  _116
REMARK   46  A    between atoms: _116  and  _117
REMARK   47  A    between atoms: _120  and  _122
REMARK   48  A    between atoms: _122  and  _123
REMARK   49  A    between atoms: _122  and  _125
REMARK   50  A    between atoms: _125  and  _126
REMARK   51  A    between atoms: _129  and  _131
REMARK   52  A    between atoms: _131  and  _132
REMARK   53  A    between atoms: _131  and  _134
REMARK   54  A    between atoms: _134  and  _135
REMARK   55  A    between atoms: _140  and  _141
REMARK   56  A    between atoms: _143  and  _145
REMARK   57  A    between atoms: _145  and  _146
REMARK   58  A    between atoms: _145  and  _148
REMARK   59  A    between atoms: _148  and  _149
REMARK   60  A    between atoms: _152  and  _154
REMARK   61  A    between atoms: _154  and  _155
REMARK   62  A    between atoms: _154  and  _157
REMARK   63  A    between atoms: _157  and  _158
REMARK   64  A    between atoms: _161  and  _163
REMARK   65  A    between atoms: _163  and  _164
REMARK   66  A    between atoms: _167  and  _169
REMARK   67  A    between atoms: _169  and  _170
REMARK   68  A    between atoms: _169  and  _172
REMARK   69  A    between atoms: _175  and  _177
REMARK   70  A    between atoms: _177  and  _178
REMARK   71  A    between atoms: _177  and  _180
REMARK   72  A    between atoms: _180  and  _181
REMARK   73  A    between atoms: _191  and  _193
REMARK   74  A    between atoms: _193  and  _194
REMARK   75  A    between atoms: _193  and  _196
REMARK   76  A    between atoms: _199  and  _201
REMARK   77  A    between atoms: _201  and  _202
REMARK   78  A    between atoms: _201  and  _204
REMARK   79  A    between atoms: _206  and  _208
REMARK   80  A    between atoms: _208  and  _209
REMARK   81  A    between atoms: _208  and  _211
REMARK   82  A    between atoms: _211  and  _212
REMARK   83  A    between atoms: _222  and  _224
REMARK   84  A    between atoms: _224  and  _225
REMARK   85  A    between atoms: _224  and  _227
REMARK   86  A    between atoms: _227  and  _228
REMARK   87  A    between atoms: _238  and  _240
REMARK   88  A    between atoms: _240  and  _241
REMARK   89  A    between atoms: _240  and  _243
REMARK   90  A    between atoms: _243  and  _244
REMARK   91  A    between atoms: _244  and  _245
REMARK   92  A    between atoms: _245  and  _246
REMARK   93  A    between atoms: _246  and  _247
REMARK   94  A    between atoms: _251  and  _253
REMARK   95  A    between atoms: _253  and  _254
REMARK   96  A    between atoms: _253  and  _256
REMARK   97  A    between atoms: _256  and  _257
REMARK   98  A    between atoms: _257  and  _258
REMARK   99  A    between atoms: _260  and  _262
REMARK  100  A    between atoms: _262  and  _263
REMARK  101  A    between atoms: _262  and  _265
REMARK  102  A    between atoms: _265  and  _266
REMARK  103  A    between atoms: _269  and  _271
REMARK  104  A    between atoms: _271  and  _272
REMARK  105  A    between atoms: _271  and  _274
REMARK  106  A    between atoms: _277  and  _279
REMARK  107  A    between atoms: _279  and  _280
REMARK  108  A    between atoms: _279  and  _282
REMARK  109  A    between atoms: _282  and  _283
REMARK  110  A    between atoms: _283  and  _284
REMARK  111  A    between atoms: _286  and  _288
REMARK  112  A    between atoms: _288  and  _289
REMARK  113  A    between atoms: _288  and  _291
REMARK  114  A    between atoms: _291  and  _292
REMARK  115  A    between atoms: _297  and  _299
REMARK  116  A    between atoms: _299  and  _300
REMARK  117  A    between atoms: _299  and  _302
REMARK  118  A    between atoms: _302  and  _303
REMARK  119  A    between atoms: _306  and  _307
REMARK  120  A    between atoms: _312  and  _314
REMARK  121  A    between atoms: _314  and  _315
REMARK  122  A    between atoms: _314  and  _317
REMARK  123  A    between atoms: _317  and  _318
REMARK  124  A    between atoms: _320  and  _322
REMARK  125  A    between atoms: _322  and  _323
REMARK  126  A    between atoms: _322  and  _325
REMARK  127  A    between atoms: _328  and  _330
REMARK  128  A    between atoms: _330  and  _331
REMARK  129  A    between atoms: _330  and  _333
REMARK  130  A    between atoms: _333  and  _334
REMARK  131  A    between atoms: _340  and  _342
REMARK  132  A    between atoms: _342  and  _343
REMARK  133  A    between atoms: _342  and  _345
REMARK  134  A    between atoms: _345  and  _346
REMARK                            x       y       z     vdW  Elec       q    Type
REMARK                         _______ _______ _______ _____ _____    ______ ____
ROOT
ATOM      1  C   MET A   1      17.419  37.276  11.909  0.00  0.00    +0.238 C 
ATOM      2  O   MET A   1      17.724  36.401  12.724  0.00  0.00    -0.274 OA
ATOM      3  N   THR A   2      18.329  37.903  11.169  0.00  0.00    -0.296 N 
ATOM      4  H   THR A   2      18.037  38.644  10.500  0.00  0.00    +0.150 HD
ENDROOT
BRANCH   1   5
ATOM      5  CA  MET A   1      15.953  37.676  11.729  0.00  0.00    +0.146 C 
BRANCH   5   6
ATOM      6  N   MET A   1      15.680  38.877  10.934  0.00  0.00    -0.238 NA
ATOM      7  H   MET A   1      15.304  38.769   9.970  0.00  0.00    +0.142 HD
ENDBRANCH   5   6
BRANCH   5   8
ATOM      8  CB  MET A   1      15.178  36.496  11.147  0.00  0.00    +0.038 C 
BRANCH   8   9
ATOM      9  CG  MET A   1      13.653  36.641  11.237  0.00  0.00    +0.060 C 
BRANCH   9  10
ATOM     10  SD  MET A   1      13.007  36.817  12.942  0.00  0.00    -0.139 S 
ATOM     11  CE  MET A   1      13.343  35.202  13.549  0.00  0.00    +0.069 C 
ENDBRANCH   9  10
ENDBRANCH   8   9
ENDBRANCH   5   8
ENDBRANCH   1   5
BRANCH   3  12
ATOM     12  CA  THR A   2      19.739  37.549  11.298  0.00  0.00    +0.164 C 
BRANCH  12  13
ATOM     13  C   THR A   2      20.281  37.828  12.691  0.00  0.00    +0.229 C 
ATOM     14  O   THR A   2      21.308  37.269  13.074  0.00  0.00    -0.286 OA
ENDBRANCH  12  13
BRANCH  12  15
ATOM     15  CB  THR A   2      20.640  38.310  10.306  0.00  0.00    +0.136 C 
ATOM     16  CG2 THR A   2      20.224  38.033   8.871  0.00  0.00    +0.034 C 
BRANCH  15  17
ATOM     17  OG1 THR A   2      20.561  39.714  10.574  0.00  0.00    -0.382 OA
ATOM     18  HG1 THR A   2      19.624  40.016  10.470  0.00  0.00    +0.210 HD
ENDBRANCH  15  17
ENDBRANCH  12  15
ENDBRANCH   3  12
TORSDOF 9
REMARK  Name = ../refined-set-2016/1x8d/1x8d_pocket.pdb
REMARK  134 active torsions:
REMARK  status: ('A' for Active; 'I' for Inactive)
REMARK    1  A    between atoms: _1  and  _3
REMARK    2  A    between atoms: _3  and  _4
REMARK    3  A    between atoms: _3  and  _6
REMARK    4  A    between atoms: _6  and  _7
REMARK    5  A    between atoms: _13  and  _15
REMARK    6  A    between atoms: _15  and  _16
REMARK    7  A    between atoms: _15  and  _18
REMARK    8  A    between atoms: _18  and  _19
REMARK    9  A    between atoms: _19  and  _20
REMARK   10  A    between atoms: _22  and  _24
REMARK   11  A    between atoms: _24  and  _25
REMARK   12  A    between atoms: _24  and  _27
REMARK   13  A    between atoms: _27  and  _28
REMARK   14  A    between atoms: _28  and  _29
REMARK   15  A    between atoms: _34  and  _36
REMARK   16  A    between atoms: _36  and  _37
REMARK   17  A    between atoms: _36  and  _39
REMARK   18  A    between atoms: _39  and  _40
REMARK   19  A    between atoms: _45  and  _46
REMARK   20  A    between atoms: _48  and  _50
REMARK   21  A    between atoms: _50  and  _51
REMARK   22  A    between atoms: _50  and  _53
REMARK   23  A    between atoms: _53  and  _54
REMARK   24  A    between atoms: _54  and  _55
REMARK   25  A    between atoms: _55  and  _56
REMARK   26  A    between atoms: _65  and  _67
REMARK   27  A    between atoms: _67  and  _68
REMARK   28  A    between atoms: _67  and  _70
REMARK   29  A    between atoms: _70  and  _71
REMARK   30  A    between atoms: _76  and  _78
REMARK   31  A    between atoms: _78  and  _79
REMARK   32  A    between atoms: _78  and  _81
REMARK   33  A    between atoms: _81  and  _82
REMARK   34  A    between atoms: _85  and  _87
REMARK   35  A    between atoms: _87  and  _88
REMARK   36  A    between atoms: _87  and  _90
REMARK   37  A    between atoms: _90  and  _91
REMARK   38  A    between atoms: _101  and  _103
REMARK   39  A    between atoms: _103  and  _104
REMARK   40  A    between atoms: _103  and  _106
REMARK   41  A    between atoms: _106  and  _107
REMARK   42  A    between atoms: _110  and  _112
REMARK   43  A    between atoms: _112  and  _113
REMARK   44  A    between atoms: _112  and  _115
REMARK   45  A    between atoms: _115  and  _116
REMARK   46  A    between atoms: _116  and  _117
REMARK   47  A    between atoms: _120  and  _122
REMARK   48  A    between atoms: _122  and  _123
REMARK   49  A    between atoms: _122  and  _125
REMARK   50  A    between atoms: _125  and  _126
REMARK   51  A    between atoms: _129  and  _131
REMARK   52  A    between atoms: _131  and  _132
REMARK   53  A    between atoms: _131  and  _134
REMARK   54  A    between atoms: _134  and  _135
REMARK   55  A    between atoms: _140  and  _141
REMARK   56  A    between atoms: _143  and  _145
REMARK   57  A    between atoms: _145  and  _146
REMARK   58  A    between atoms: _145  and  _148
REMARK   59  A    between atoms: _148  and  _149
REMARK   60  A    between atoms: _152  and  _154
REMARK   61  A    between atoms: _154  and  _155
REMARK   62  A    between atoms: _154  and  _157
REMARK   63  A    between atoms: _157  and  _158
REMARK   64  A    between atoms: _161  and  _163
REMARK   65  A    between atoms: _163  and  _164
REMARK   66  A    between atoms: _167  and  _169
REMARK   67  A    between atoms: _169  and  _170
REMARK   68  A    between atoms: _169  and  _172
REMARK   69  A    between atoms: _175  and  _177
REMARK   70  A    between atoms: _177  and  _178
REMARK   71  A    between atoms: _177  and  _180
REMARK   72  A    between atoms: _180  and  _181
REMARK   73  A    between atoms: _191  and  _193
REMARK   74  A    between atoms: _193  and  _194
REMARK   75  A    between atoms: _193  and  _196
REMARK   76  A    between atoms: _199  and  _201
REMARK   77  A    between atoms: _201  and  _202
REMARK   78  A    between atoms: _201  and  _204
REMARK   79  A    between atoms: _206  and  _208
REMARK   80  A    between atoms: _208  and  _209
REMARK   81  A    between atoms: _208  and  _211
REMARK   82  A    between atoms: _211  and  _212
REMARK   83  A    between atoms: _222  and  _224
REMARK   84  A    between atoms: _224  and  _225
REMARK   85  A    between atoms: _224  and  _227
REMARK   86  A    between atoms: _227  and  _228
REMARK   87  A    between atoms: _238  and  _240
REMARK   88  A    between atoms: _240  and  _241
REMARK   89  A    between atoms: _240  and  _243
REMARK   90  A    between atoms: _243  and  _244
REMARK   91  A    between atoms: _244  and  _245
REMARK   92  A    between atoms: _245  and  _246
REMARK   93  A    between atoms: _246  and  _247
REMARK   94  A    between atoms: _251  and  _253
REMARK   95  A    between atoms: _253  and  _254
REMARK   96  A    between atoms: _253  and  _256
REMARK   97  A    between atoms: _256  and  _257
REMARK   98  A    between atoms: _257  and  _258
REMARK   99  A    between atoms: _260  and  _262
REMARK  100  A    between atoms: _262  and  _263
REMARK  101  A    between atoms: _262  and  _265
REMARK  102  A    between atoms: _265  and  _266
REMARK  103  A    between atoms: _269  and  _271
REMARK  104  A    between atoms: _271  and  _272
REMARK  105  A    between atoms: _271  and  _274
REMARK  106  A    between atoms: _277  and  _279
REMARK  107  A    between atoms: _279  and  _280
REMARK  108  A    between atoms: _279  and  _282
REMARK  109  A    between atoms: _282  and  _283
REMARK  110  A    between atoms: _283  and  _284
REMARK  111  A    between atoms: _286  and  _288
REMARK  112  A    between atoms: _288  and  _289
REMARK  113  A    between atoms: _288  and  _291
REMARK  114  A    between atoms: _291  and  _292
REMARK  115  A    between atoms: _297  and  _299
REMARK  116  A    between atoms: _299  and  _300
REMARK  117  A    between atoms: _299  and  _302
REMARK  118  A    between atoms: _302  and  _303
REMARK  119  A    between atoms: _306  and  _307
REMARK  120  A    between atoms: _312  and  _314
REMARK  121  A    between atoms: _314  and  _315
REMARK  122  A    between atoms: _314  and  _317
REMARK  123  A    between atoms: _317  and  _318
REMARK  124  A    between atoms: _320  and  _322
REMARK  125  A    between atoms: _322  and  _323
REMARK  126  A    between atoms: _322  and  _325
REMARK  127  A    between atoms: _328  and  _330
REMARK  128  A    between atoms: _330  and  _331
REMARK  129  A    between atoms: _330  and  _333
REMARK  130  A    between atoms: _333  and  _334
REMARK  131  A    between atoms: _340  and  _342
REMARK  132  A    between atoms: _342  and  _343
REMARK  133  A    between atoms: _342  and  _345
REMARK  134  A    between atoms: _345  and  _346
REMARK                            x       y       z     vdW  Elec       q    Type
REMARK                         _______ _______ _______ _____ _____    ______ ____
ROOT
ATOM      1  C   VAL A   1      18.921  34.485  15.914  0.00  0.00    +0.238 C 
ATOM      2  O   VAL A   1      18.769  33.513  16.659  0.00  0.00    -0.274 OA
ATOM      3  N   MET A   2      19.398  34.362  14.676  0.00  0.00    -0.298 N 
ATOM      4  H   MET A   2      19.519  35.203  14.077  0.00  0.00    +0.150 HD
ENDROOT
BRANCH   1   5
ATOM      5  CA  VAL A   1      18.557  35.890  16.407  0.00  0.00    +0.145 C 
BRANCH   5   6
ATOM      6  CB  VAL A   1      17.046  35.892  16.786  0.00  0.00    +0.025 C 
ATOM      7  CG2 VAL A   1      16.705  37.159  17.544  0.00  0.00    +0.002 C 
ATOM      8  CG1 VAL A   1      16.177  35.770  15.540  0.00  0.00    +0.002 C 
ENDBRANCH   5   6
BRANCH   5   9
ATOM      9  N   VAL A   1      18.910  36.967  15.475  0.00  0.00    -0.238 NA
ATOM     10  H   VAL A   1      18.455  37.013  14.541  0.00  0.00    +0.142 HD
ENDBRANCH   5   9
ENDBRANCH   1   5
BRANCH   3  11
ATOM     11  CA  MET A   2      19.751  33.035  14.163  0.00  0.00    +0.138 C 
BRANCH  11  12
ATOM     12  C   MET A   2      20.800  33.052  13.061  0.00  0.00    +0.227 C 
ATOM     13  O   MET A   2      20.940  34.041  12.339  0.00  0.00    -0.286 OA
ENDBRANCH  11  12
BRANCH  11  14
ATOM     14  CB  MET A   2      18.493  32.333  13.649  0.00  0.00    +0.039 C 
BRANCH  14  15
ATOM     15  CG  MET A   2      17.904  32.974  12.390  0.00  0.00    +0.060 C 
BRANCH  15  16
ATOM     16  SD  MET A   2      16.171  32.553  12.149  0.00  0.00    -0.139 S 
ATOM     17  CE  MET A   2      16.278  30.778  11.889  0.00  0.00    +0.069 C 
ENDBRANCH  15  16
ENDBRANCH  14  15
ENDBRANCH  11  14
ENDBRANCH   3  11
TORSDOF 8
REMARK  Name = ../refined-set-2016/1x8d/1x8d_pocket.pdb
REMARK  134 active torsions:
REMARK  status: ('A' for Active; 'I' for Inactive)
REMARK    1  A    between atoms: _1  and  _3
REMARK    2  A    between atoms: _3  and  _4
REMARK    3  A    between atoms: _3  and  _6
REMARK    4  A    between atoms: _6  and  _7
REMARK    5  A    between atoms: _13  and  _15
REMARK    6  A    between atoms: _15  and  _16
REMARK    7  A    between atoms: _15  and  _18
REMARK    8  A    between atoms: _18  and  _19
REMARK    9  A    between atoms: _19  and  _20
REMARK   10  A    between atoms: _22  and  _24
REMARK   11  A    between atoms: _24  and  _25
REMARK   12  A    between atoms: _24  and  _27
REMARK   13  A    between atoms: _27  and  _28
REMARK   14  A    between atoms: _28  and  _29
REMARK   15  A    between atoms: _34  and  _36
REMARK   16  A    between atoms: _36  and  _37
REMARK   17  A    between atoms: _36  and  _39
REMARK   18  A    between atoms: _39  and  _40
REMARK   19  A    between atoms: _45  and  _46
REMARK   20  A    between atoms: _48  and  _50
REMARK   21  A    between atoms: _50  and  _51
REMARK   22  A    between atoms: _50  and  _53
REMARK   23  A    between atoms: _53  and  _54
REMARK   24  A    between atoms: _54  and  _55
REMARK   25  A    between atoms: _55  and  _56
REMARK   26  A    between atoms: _65  and  _67
REMARK   27  A    between atoms: _67  and  _68
REMARK   28  A    between atoms: _67  and  _70
REMARK   29  A    between atoms: _70  and  _71
REMARK   30  A    between atoms: _76  and  _78
REMARK   31  A    between atoms: _78  and  _79
REMARK   32  A    between atoms: _78  and  _81
REMARK   33  A    between atoms: _81  and  _82
REMARK   34  A    between atoms: _85  and  _87
REMARK   35  A    between atoms: _87  and  _88
REMARK   36  A    between atoms: _87  and  _90
REMARK   37  A    between atoms: _90  and  _91
REMARK   38  A    between atoms: _101  and  _103
REMARK   39  A    between atoms: _103  and  _104
REMARK   40  A    between atoms: _103  and  _106
REMARK   41  A    between atoms: _106  and  _107
REMARK   42  A    between atoms: _110  and  _112
REMARK   43  A    between atoms: _112  and  _113
REMARK   44  A    between atoms: _112  and  _115
REMARK   45  A    between atoms: _115  and  _116
REMARK   46  A    between atoms: _116  and  _117
REMARK   47  A    between atoms: _120  and  _122
REMARK   48  A    between atoms: _122  and  _123
REMARK   49  A    between atoms: _122  and  _125
REMARK   50  A    between atoms: _125  and  _126
REMARK   51  A    between atoms: _129  and  _131
REMARK   52  A    between atoms: _131  and  _132
REMARK   53  A    between atoms: _131  and  _134
REMARK   54  A    between atoms: _134  and  _135
REMARK   55  A    between atoms: _140  and  _141
REMARK   56  A    between atoms: _143  and  _145
REMARK   57  A    between atoms: _145  and  _146
REMARK   58  A    between atoms: _145  and  _148
REMARK   59  A    between atoms: _148  and  _149
REMARK   60  A    between atoms: _152  and  _154
REMARK   61  A    between atoms: _154  and  _155
REMARK   62  A    between atoms: _154  and  _157
REMARK   63  A    between atoms: _157  and  _158
REMARK   64  A    between atoms: _161  and  _163
REMARK   65  A    between atoms: _163  and  _164
REMARK   66  A    between atoms: _167  and  _169
REMARK   67  A    between atoms: _169  and  _170
REMARK   68  A    between atoms: _169  and  _172
REMARK   69  A    between atoms: _175  and  _177
REMARK   70  A    between atoms: _177  and  _178
REMARK   71  A    between atoms: _177  and  _180
REMARK   72  A    between atoms: _180  and  _181
REMARK   73  A    between atoms: _191  and  _193
REMARK   74  A    between atoms: _193  and  _194
REMARK   75  A    between atoms: _193  and  _196
REMARK   76  A    between atoms: _199  and  _201
REMARK   77  A    between atoms: _201  and  _202
REMARK   78  A    between atoms: _201  and  _204
REMARK   79  A    between atoms: _206  and  _208
REMARK   80  A    between atoms: _208  and  _209
REMARK   81  A    between atoms: _208  and  _211
REMARK   82  A    between atoms: _211  and  _212
REMARK   83  A    between atoms: _222  and  _224
REMARK   84  A    between atoms: _224  and  _225
REMARK   85  A    between atoms: _224  and  _227
REMARK   86  A    between atoms: _227  and  _228
REMARK   87  A    between atoms: _238  and  _240
REMARK   88  A    between atoms: _240  and  _241
REMARK   89  A    between atoms: _240  and  _243
REMARK   90  A    between atoms: _243  and  _244
REMARK   91  A    between atoms: _244  and  _245
REMARK   92  A    between atoms: _245  and  _246
REMARK   93  A    between atoms: _246  and  _247
REMARK   94  A    between atoms: _251  and  _253
REMARK   95  A    between atoms: _253  and  _254
REMARK   96  A    between atoms: _253  and  _256
REMARK   97  A    between atoms: _256  and  _257
REMARK   98  A    between atoms: _257  and  _258
REMARK   99  A    between atoms: _260  and  _262
REMARK  100  A    between atoms: _262  and  _263
REMARK  101  A    between atoms: _262  and  _265
REMARK  102  A    between atoms: _265  and  _266
REMARK  103  A    between atoms: _269  and  _271
REMARK  104  A    between atoms: _271  and  _272
REMARK  105  A    between atoms: _271  and  _274
REMARK  106  A    between atoms: _277  and  _279
REMARK  107  A    between atoms: _279  and  _280
REMARK  108  A    between atoms: _279  and  _282
REMARK  109  A    between atoms: _282  and  _283
REMARK  110  A    between atoms: _283  and  _284
REMARK  111  A    between atoms: _286  and  _288
REMARK  112  A    between atoms: _288  and  _289
REMARK  113  A    between atoms: _288  and  _291
REMARK  114  A    between atoms: _291  and  _292
REMARK  115  A    between atoms: _297  and  _299
REMARK  116  A    between atoms: _299  and  _300
REMARK  117  A    between atoms: _299  and  _302
REMARK  118  A    between atoms: _302  and  _303
REMARK  119  A    between atoms: _306  and  _307
REMARK  120  A    between atoms: _312  and  _314
REMARK  121  A    between atoms: _314  and  _315
REMARK  122  A    between atoms: _314  and  _317
REMARK  123  A    between atoms: _317  and  _318
REMARK  124  A    between atoms: _320  and  _322
REMARK  125  A    between atoms: _322  and  _323
REMARK  126  A    between atoms: _322  and  _325
REMARK  127  A    between atoms: _328  and  _330
REMARK  128  A    between atoms: _330  and  _331
REMARK  129  A    between atoms: _330  and  _333
REMARK  130  A    between atoms: _333  and  _334
REMARK  131  A    between atoms: _340  and  _342
REMARK  132  A    between atoms: _342  and  _343
REMARK  133  A    between atoms: _342  and  _345
REMARK  134  A    between atoms: _345  and  _346
REMARK                            x       y       z     vdW  Elec       q    Type
REMARK                         _______ _______ _______ _____ _____    ______ ____
ROOT
ATOM      1  C   ASN A   1      19.369  35.461   4.911  0.00  0.00    +0.239 C 
ATOM      2  O   ASN A   1      18.650  35.552   5.906  0.00  0.00    -0.274 OA
ATOM      3  N   SER A   2      19.248  34.477   4.023  0.00  0.00    -0.295 N 
ATOM      4  H   SER A   2      19.838  34.479   3.166  0.00  0.00    +0.150 HD
ENDROOT
BRANCH   1   5
ATOM      5  CA  ASN A   1      20.427  36.524   4.647  0.00  0.00    +0.154 C 
BRANCH   5   6
ATOM      6  N   ASN A   1      21.336  36.308   3.514  0.00  0.00    -0.238 NA
ATOM      7  H   ASN A   1      22.272  35.900   3.712  0.00  0.00    +0.142 HD
ENDBRANCH   5   6
BRANCH   5   8
ATOM      8  CB  ASN A   1      19.745  37.887   4.560  0.00  0.00    +0.111 C 
BRANCH   8   9
ATOM      9  CG  ASN A   1      20.677  39.019   4.940  0.00  0.00    +0.221 C 
ATOM     10  OD1 ASN A   1      21.652  38.814   5.674  0.00  0.00    -0.275 OA
ATOM     11  ND2 ASN A   1      20.385  40.217   4.454  0.00  0.00    -0.329 N 
ATOM     12 HD21 ASN A   1      20.986  41.033   4.686  0.00  0.00    +0.145 HD
ATOM     13 HD22 ASN A   1      19.554  40.341   3.841  0.00  0.00    +0.145 HD
ENDBRANCH   8   9
ENDBRANCH   5   8
ENDBRANCH   1   5
BRANCH   3  14
ATOM     14  CA  SER A   2      18.295  33.397   4.243  0.00  0.00    +0.178 C 
BRANCH  14  15
ATOM     15  C   SER A   2      18.847  32.594   5.426  0.00  0.00    +0.246 C 
ATOM     16  N   PRO A   3      17.966  32.049   6.278  0.00  0.00    -0.273 N 
ATOM     17  CA  PRO A   3      18.479  31.289   7.422  0.00  0.00    +0.140 C 
ATOM     18  CB  PRO A   3      17.216  30.972   8.222  0.00  0.00    +0.030 C 
ATOM     19  CG  PRO A   3      16.198  30.776   7.146  0.00  0.00    +0.024 C 
ATOM     20  CD  PRO A   3      16.501  31.915   6.169  0.00  0.00    +0.094 C 
ATOM     21  O   SER A   2      20.067  32.464   5.584  0.00  0.00    -0.273 OA
BRANCH  17  22
ATOM     22  C   PRO A   3      19.220  30.030   7.016  0.00  0.00    +0.227 C 
ATOM     23  O   PRO A   3      18.899  29.424   5.999  0.00  0.00    -0.286 OA
ENDBRANCH  17  22
ENDBRANCH  14  15
BRANCH  14  24
ATOM     24  CB  SER A   2      18.168  32.515   2.995  0.00  0.00    +0.166 C 
BRANCH  24  25
ATOM     25  OG  SER A   2      19.411  31.964   2.634  0.00  0.00    -0.380 OA
ATOM     26  H   SER A   2      20.051  32.694   2.442  0.00  0.00    +0.211 HD
ENDBRANCH  24  25
ENDBRANCH  14  24
ENDBRANCH   3  14
TORSDOF 9
REMARK  Name = ../refined-set-2016/1x8d/1x8d_pocket.pdb
REMARK  134 active torsions:
REMARK  status: ('A' for Active; 'I' for Inactive)
REMARK    1  A    between atoms: _1  and  _3
REMARK    2  A    between atoms: _3  and  _4
REMARK    3  A    between atoms: _3  and  _6
REMARK    4  A    between atoms: _6  and  _7
REMARK    5  A    between atoms: _13  and  _15
REMARK    6  A    between atoms: _15  and  _16
REMARK    7  A    between atoms: _15  and  _18
REMARK    8  A    between atoms: _18  and  _19
REMARK    9  A    between atoms: _19  and  _20
REMARK   10  A    between atoms: _22  and  _24
REMARK   11  A    between atoms: _24  and  _25
REMARK   12  A    between atoms: _24  and  _27
REMARK   13  A    between atoms: _27  and  _28
REMARK   14  A    between atoms: _28  and  _29
REMARK   15  A    between atoms: _34  and  _36
REMARK   16  A    between atoms: _36  and  _37
REMARK   17  A    between atoms: _36  and  _39
REMARK   18  A    between atoms: _39  and  _40
REMARK   19  A    between atoms: _45  and  _46
REMARK   20  A    between atoms: _48  and  _50
REMARK   21  A    between atoms: _50  and  _51
REMARK   22  A    between atoms: _50  and  _53
REMARK   23  A    between atoms: _53  and  _54
REMARK   24  A    between atoms: _54  and  _55
REMARK   25  A    between atoms: _55  and  _56
REMARK   26  A    between atoms: _65  and  _67
REMARK   27  A    between atoms: _67  and  _68
REMARK   28  A    between atoms: _67  and  _70
REMARK   29  A    between atoms: _70  and  _71
REMARK   30  A    between atoms: _76  and  _78
REMARK   31  A    between atoms: _78  and  _79
REMARK   32  A    between atoms: _78  and  _81
REMARK   33  A    between atoms: _81  and  _82
REMARK   34  A    between atoms: _85  and  _87
REMARK   35  A    between atoms: _87  and  _88
REMARK   36  A    between atoms: _87  and  _90
REMARK   37  A    between atoms: _90  and  _91
REMARK   38  A    between atoms: _101  and  _103
REMARK   39  A    between atoms: _103  and  _104
REMARK   40  A    between atoms: _103  and  _106
REMARK   41  A    between atoms: _106  and  _107
REMARK   42  A    between atoms: _110  and  _112
REMARK   43  A    between atoms: _112  and  _113
REMARK   44  A    between atoms: _112  and  _115
REMARK   45  A    between atoms: _115  and  _116
REMARK   46  A    between atoms: _116  and  _117
REMARK   47  A    between atoms: _120  and  _122
REMARK   48  A    between atoms: _122  and  _123
REMARK   49  A    between atoms: _122  and  _125
REMARK   50  A    between atoms: _125  and  _126
REMARK   51  A    between atoms: _129  and  _131
REMARK   52  A    between atoms: _131  and  _132
REMARK   53  A    between atoms: _131  and  _134
REMARK   54  A    between atoms: _134  and  _135
REMARK   55  A    between atoms: _140  and  _141
REMARK   56  A    between atoms: _143  and  _145
REMARK   57  A    between atoms: _145  and  _146
REMARK   58  A    between atoms: _145  and  _148
REMARK   59  A    between atoms: _148  and  _149
REMARK   60  A    between atoms: _152  and  _154
REMARK   61  A    between atoms: _154  and  _155
REMARK   62  A    between atoms: _154  and  _157
REMARK   63  A    between atoms: _157  and  _158
REMARK   64  A    between atoms: _161  and  _163
REMARK   65  A    between atoms: _163  and  _164
REMARK   66  A    between atoms: _167  and  _169
REMARK   67  A    between atoms: _169  and  _170
REMARK   68  A    between atoms: _169  and  _172
REMARK   69  A    between atoms: _175  and  _177
REMARK   70  A    between atoms: _177  and  _178
REMARK   71  A    between atoms: _177  and  _180
REMARK   72  A    between atoms: _180  and  _181
REMARK   73  A    between atoms: _191  and  _193
REMARK   74  A    between atoms: _193  and  _194
REMARK   75  A    between atoms: _193  and  _196
REMARK   76  A    between atoms: _199  and  _201
REMARK   77  A    between atoms: _201  and  _202
REMARK   78  A    between atoms: _201  and  _204
REMARK   79  A    between atoms: _206  and  _208
REMARK   80  A    between atoms: _208  and  _209
REMARK   81  A    between atoms: _208  and  _211
REMARK   82  A    between atoms: _211  and  _212
REMARK   83  A    between atoms: _222  and  _224
REMARK   84  A    between atoms: _224  and  _225
REMARK   85  A    between atoms: _224  and  _227
REMARK   86  A    between atoms: _227  and  _228
REMARK   87  A    between atoms: _238  and  _240
REMARK   88  A    between atoms: _240  and  _241
REMARK   89  A    between atoms: _240  and  _243
REMARK   90  A    between atoms: _243  and  _244
REMARK   91  A    between atoms: _244  and  _245
REMARK   92  A    between atoms: _245  and  _246
REMARK   93  A    between atoms: _246  and  _247
REMARK   94  A    between atoms: _251  and  _253
REMARK   95  A    between atoms: _253  and  _254
REMARK   96  A    between atoms: _253  and  _256
REMARK   97  A    between atoms: _256  and  _257
REMARK   98  A    between atoms: _257  and  _258
REMARK   99  A    between atoms: _260  and  _262
REMARK  100  A    between atoms: _262  and  _263
REMARK  101  A    between atoms: _262  and  _265
REMARK  102  A    between atoms: _265  and  _266
REMARK  103  A    between atoms: _269  and  _271
REMARK  104  A    between atoms: _271  and  _272
REMARK  105  A    between atoms: _271  and  _274
REMARK  106  A    between atoms: _277  and  _279
REMARK  107  A    between atoms: _279  and  _280
REMARK  108  A    between atoms: _279  and  _282
REMARK  109  A    between atoms: _282  and  _283
REMARK  110  A    between atoms: _283  and  _284
REMARK  111  A    between atoms: _286  and  _288
REMARK  112  A    between atoms: _288  and  _289
REMARK  113  A    between atoms: _288  and  _291
REMARK  114  A    between atoms: _291  and  _292
REMARK  115  A    between atoms: _297  and  _299
REMARK  116  A    between atoms: _299  and  _300
REMARK  117  A    between atoms: _299  and  _302
REMARK  118  A    between atoms: _302  and  _303
REMARK  119  A    between atoms: _306  and  _307
REMARK  120  A    between atoms: _312  and  _314
REMARK  121  A    between atoms: _314  and  _315
REMARK  122  A    between atoms: _314  and  _317
REMARK  123  A    between atoms: _317  and  _318
REMARK  124  A    between atoms: _320  and  _322
REMARK  125  A    between atoms: _322  and  _323
REMARK  126  A    between atoms: _322  and  _325
REMARK  127  A    between atoms: _328  and  _330
REMARK  128  A    between atoms: _330  and  _331
REMARK  129  A    between atoms: _330  and  _333
REMARK  130  A    between atoms: _333  and  _334
REMARK  131  A    between atoms: _340  and  _342
REMARK  132  A    between atoms: _342  and  _343
REMARK  133  A    between atoms: _342  and  _345
REMARK  134  A    between atoms: _345  and  _346
REMARK                            x       y       z     vdW  Elec       q    Type
REMARK                         _______ _______ _______ _____ _____    ______ ____
ROOT
ATOM      1  CA  SER A   1      18.695  25.499   6.708  0.00  0.00    +0.163 C 
ENDROOT
BRANCH   1   2
ATOM      2  N   SER A   1      19.739  26.517   6.689  0.00  0.00    -0.237 NA
ATOM      3  H   SER A   1      20.383  26.577   5.875  0.00  0.00    +0.142 HD
ENDBRANCH   1   2
BRANCH   1   4
ATOM      4  C   SER A   1      19.109  24.249   5.929  0.00  0.00    +0.227 C 
ATOM      5  O   SER A   1      19.964  24.320   5.040  0.00  0.00    -0.287 OA
ENDBRANCH   1   4
BRANCH   1   6
ATOM      6  CB  SER A   1      17.432  26.089   6.085  0.00  0.00    +0.162 C 
BRANCH   6   7
ATOM      7  OG  SER A   1      16.357  25.165   6.071  0.00  0.00    -0.380 OA
ATOM      8  H   SER A   1      16.616  24.368   5.544  0.00  0.00    +0.211 HD
ENDBRANCH   6   7
ENDBRANCH   1   6
TORSDOF 4
REMARK  Name = ../refined-set-2016/1x8d/1x8d_pocket.pdb
REMARK  134 active torsions:
REMARK  status: ('A' for Active; 'I' for Inactive)
REMARK    1  A    between atoms: _1  and  _3
REMARK    2  A    between atoms: _3  and  _4
REMARK    3  A    between atoms: _3  and  _6
REMARK    4  A    between atoms: _6  and  _7
REMARK    5  A    between atoms: _13  and  _15
REMARK    6  A    between atoms: _15  and  _16
REMARK    7  A    between atoms: _15  and  _18
REMARK    8  A    between atoms: _18  and  _19
REMARK    9  A    between atoms: _19  and  _20
REMARK   10  A    between atoms: _22  and  _24
REMARK   11  A    between atoms: _24  and  _25
REMARK   12  A    between atoms: _24  and  _27
REMARK   13  A    between atoms: _27  and  _28
REMARK   14  A    between atoms: _28  and  _29
REMARK   15  A    between atoms: _34  and  _36
REMARK   16  A    between atoms: _36  and  _37
REMARK   17  A    between atoms: _36  and  _39
REMARK   18  A    between atoms: _39  and  _40
REMARK   19  A    between atoms: _45  and  _46
REMARK   20  A    between atoms: _48  and  _50
REMARK   21  A    between atoms: _50  and  _51
REMARK   22  A    between atoms: _50  and  _53
REMARK   23  A    between atoms: _53  and  _54
REMARK   24  A    between atoms: _54  and  _55
REMARK   25  A    between atoms: _55  and  _56
REMARK   26  A    between atoms: _65  and  _67
REMARK   27  A    between atoms: _67  and  _68
REMARK   28  A    between atoms: _67  and  _70
REMARK   29  A    between atoms: _70  and  _71
REMARK   30  A    between atoms: _76  and  _78
REMARK   31  A    between atoms: _78  and  _79
REMARK   32  A    between atoms: _78  and  _81
REMARK   33  A    between atoms: _81  and  _82
REMARK   34  A    between atoms: _85  and  _87
REMARK   35  A    between atoms: _87  and  _88
REMARK   36  A    between atoms: _87  and  _90
REMARK   37  A    between atoms: _90  and  _91
REMARK   38  A    between atoms: _101  and  _103
REMARK   39  A    between atoms: _103  and  _104
REMARK   40  A    between atoms: _103  and  _106
REMARK   41  A    between atoms: _106  and  _107
REMARK   42  A    between atoms: _110  and  _112
REMARK   43  A    between atoms: _112  and  _113
REMARK   44  A    between atoms: _112  and  _115
REMARK   45  A    between atoms: _115  and  _116
REMARK   46  A    between atoms: _116  and  _117
REMARK   47  A    between atoms: _120  and  _122
REMARK   48  A    between atoms: _122  and  _123
REMARK   49  A    between atoms: _122  and  _125
REMARK   50  A    between atoms: _125  and  _126
REMARK   51  A    between atoms: _129  and  _131
REMARK   52  A    between atoms: _131  and  _132
REMARK   53  A    between atoms: _131  and  _134
REMARK   54  A    between atoms: _134  and  _135
REMARK   55  A    between atoms: _140  and  _141
REMARK   56  A    between atoms: _143  and  _145
REMARK   57  A    between atoms: _145  and  _146
REMARK   58  A    between atoms: _145  and  _148
REMARK   59  A    between atoms: _148  and  _149
REMARK   60  A    between atoms: _152  and  _154
REMARK   61  A    between atoms: _154  and  _155
REMARK   62  A    between atoms: _154  and  _157
REMARK   63  A    between atoms: _157  and  _158
REMARK   64  A    between atoms: _161  and  _163
REMARK   65  A    between atoms: _163  and  _164
REMARK   66  A    between atoms: _167  and  _169
REMARK   67  A    between atoms: _169  and  _170
REMARK   68  A    between atoms: _169  and  _172
REMARK   69  A    between atoms: _175  and  _177
REMARK   70  A    between atoms: _177  and  _178
REMARK   71  A    between atoms: _177  and  _180
REMARK   72  A    between atoms: _180  and  _181
REMARK   73  A    between atoms: _191  and  _193
REMARK   74  A    between atoms: _193  and  _194
REMARK   75  A    between atoms: _193  and  _196
REMARK   76  A    between atoms: _199  and  _201
REMARK   77  A    between atoms: _201  and  _202
REMARK   78  A    between atoms: _201  and  _204
REMARK   79  A    between atoms: _206  and  _208
REMARK   80  A    between atoms: _208  and  _209
REMARK   81  A    between atoms: _208  and  _211
REMARK   82  A    between atoms: _211  and  _212
REMARK   83  A    between atoms: _222  and  _224
REMARK   84  A    between atoms: _224  and  _225
REMARK   85  A    between atoms: _224  and  _227
REMARK   86  A    between atoms: _227  and  _228
REMARK   87  A    between atoms: _238  and  _240
REMARK   88  A    between atoms: _240  and  _241
REMARK   89  A    between atoms: _240  and  _243
REMARK   90  A    between atoms: _243  and  _244
REMARK   91  A    between atoms: _244  and  _245
REMARK   92  A    between atoms: _245  and  _246
REMARK   93  A    between atoms: _246  and  _247
REMARK   94  A    between atoms: _251  and  _253
REMARK   95  A    between atoms: _253  and  _254
REMARK   96  A    between atoms: _253  and  _256
REMARK   97  A    between atoms: _256  and  _257
REMARK   98  A    between atoms: _257  and  _258
REMARK   99  A    between atoms: _260  and  _262
REMARK  100  A    between atoms: _262  and  _263
REMARK  101  A    between atoms: _262  and  _265
REMARK  102  A    between atoms: _265  and  _266
REMARK  103  A    between atoms: _269  and  _271
REMARK  104  A    between atoms: _271  and  _272
REMARK  105  A    between atoms: _271  and  _274
REMARK  106  A    between atoms: _277  and  _279
REMARK  107  A    between atoms: _279  and  _280
REMARK  108  A    between atoms: _279  and  _282
REMARK  109  A    between atoms: _282  and  _283
REMARK  110  A    between atoms: _283  and  _284
REMARK  111  A    between atoms: _286  and  _288
REMARK  112  A    between atoms: _288  and  _289
REMARK  113  A    between atoms: _288  and  _291
REMARK  114  A    between atoms: _291  and  _292
REMARK  115  A    between atoms: _297  and  _299
REMARK  116  A    between atoms: _299  and  _300
REMARK  117  A    between atoms: _299  and  _302
REMARK  118  A    between atoms: _302  and  _303
REMARK  119  A    between atoms: _306  and  _307
REMARK  120  A    between atoms: _312  and  _314
REMARK  121  A    between atoms: _314  and  _315
REMARK  122  A    between atoms: _314  and  _317
REMARK  123  A    between atoms: _317  and  _318
REMARK  124  A    between atoms: _320  and  _322
REMARK  125  A    between atoms: _322  and  _323
REMARK  126  A    between atoms: _322  and  _325
REMARK  127  A    between atoms: _328  and  _330
REMARK  128  A    between atoms: _330  and  _331
REMARK  129  A    between atoms: _330  and  _333
REMARK  130  A    between atoms: _333  and  _334
REMARK  131  A    between atoms: _340  and  _342
REMARK  132  A    between atoms: _342  and  _343
REMARK  133  A    between atoms: _342  and  _345
REMARK  134  A    between atoms: _345  and  _346
REMARK                            x       y       z     vdW  Elec       q    Type
REMARK                         _______ _______ _______ _____ _____    ______ ____
ROOT
ATOM      1  C   VAL A   1       6.210  29.240  17.430  0.00  0.00    +0.238 C 
ATOM      2  O   VAL A   1       6.164  30.471  17.488  0.00  0.00    -0.274 OA
ATOM      3  N   PHE A   2       5.649  28.535  16.452  0.00  0.00    -0.298 N 
ATOM      4  H   PHE A   2       5.709  27.497  16.484  0.00  0.00    +0.150 HD
ENDROOT
BRANCH   1   5
ATOM      5  CA  VAL A   1       6.919  28.443  18.516  0.00  0.00    +0.145 C 
BRANCH   5   6
ATOM      6  CB  VAL A   1       8.438  28.787  18.448  0.00  0.00    +0.025 C 
ATOM      7  CG2 VAL A   1       9.147  28.284  19.706  0.00  0.00    +0.002 C 
ATOM      8  CG1 VAL A   1       9.065  28.169  17.209  0.00  0.00    +0.002 C 
ENDBRANCH   5   6
BRANCH   5   9
ATOM      9  N   VAL A   1       6.683  27.006  18.427  0.00  0.00    -0.238 NA
ATOM     10  H   VAL A   1       7.016  26.488  17.589  0.00  0.00    +0.142 HD
ENDBRANCH   5   9
ENDBRANCH   1   5
BRANCH   3  11
ATOM     11  CA  PHE A   2       4.952  29.165  15.336  0.00  0.00    +0.141 C 
BRANCH  11  12
ATOM     12  C   PHE A   2       4.023  28.157  14.665  0.00  0.00    +0.227 C 
ATOM     13  O   PHE A   2       4.350  26.968  14.559  0.00  0.00    -0.286 OA
ENDBRANCH  11  12
BRANCH  11  14
ATOM     14  CB  PHE A   2       5.976  29.679  14.311  0.00  0.00    +0.054 C 
BRANCH  14  15
ATOM     15  CG  PHE A   2       5.362  30.214  13.049  0.00  0.00    -0.020 A 
ATOM     16  CD2 PHE A   2       4.537  31.339  13.081  0.00  0.00    -0.004 A 
ATOM     17  CE2 PHE A   2       3.960  31.843  11.913  0.00  0.00    -0.000 A 
ATOM     18  CZ  PHE A   2       4.211  31.216  10.691  0.00  0.00    -0.000 A 
ATOM     19  CE1 PHE A   2       5.036  30.087  10.645  0.00  0.00    -0.000 A 
ATOM     20  CD1 PHE A   2       5.607  29.594  11.830  0.00  0.00    -0.004 A 
ENDBRANCH  14  15
ENDBRANCH  11  14
ENDBRANCH   3  11
TORSDOF 7
REMARK  Name = ../refined-set-2016/1x8d/1x8d_pocket.pdb
REMARK  134 active torsions:
REMARK  status: ('A' for Active; 'I' for Inactive)
REMARK    1  A    between atoms: _1  and  _3
REMARK    2  A    between atoms: _3  and  _4
REMARK    3  A    between atoms: _3  and  _6
REMARK    4  A    between atoms: _6  and  _7
REMARK    5  A    between atoms: _13  and  _15
REMARK    6  A    between atoms: _15  and  _16
REMARK    7  A    between atoms: _15  and  _18
REMARK    8  A    between atoms: _18  and  _19
REMARK    9  A    between atoms: _19  and  _20
REMARK   10  A    between atoms: _22  and  _24
REMARK   11  A    between atoms: _24  and  _25
REMARK   12  A    between atoms: _24  and  _27
REMARK   13  A    between atoms: _27  and  _28
REMARK   14  A    between atoms: _28  and  _29
REMARK   15  A    between atoms: _34  and  _36
REMARK   16  A    between atoms: _36  and  _37
REMARK   17  A    between atoms: _36  and  _39
REMARK   18  A    between atoms: _39  and  _40
REMARK   19  A    between atoms: _45  and  _46
REMARK   20  A    between atoms: _48  and  _50
REMARK   21  A    between atoms: _50  and  _51
REMARK   22  A    between atoms: _50  and  _53
REMARK   23  A    between atoms: _53  and  _54
REMARK   24  A    between atoms: _54  and  _55
REMARK   25  A    between atoms: _55  and  _56
REMARK   26  A    between atoms: _65  and  _67
REMARK   27  A    between atoms: _67  and  _68
REMARK   28  A    between atoms: _67  and  _70
REMARK   29  A    between atoms: _70  and  _71
REMARK   30  A    between atoms: _76  and  _78
REMARK   31  A    between atoms: _78  and  _79
REMARK   32  A    between atoms: _78  and  _81
REMARK   33  A    between atoms: _81  and  _82
REMARK   34  A    between atoms: _85  and  _87
REMARK   35  A    between atoms: _87  and  _88
REMARK   36  A    between atoms: _87  and  _90
REMARK   37  A    between atoms: _90  and  _91
REMARK   38  A    between atoms: _101  and  _103
REMARK   39  A    between atoms: _103  and  _104
REMARK   40  A    between atoms: _103  and  _106
REMARK   41  A    between atoms: _106  and  _107
REMARK   42  A    between atoms: _110  and  _112
REMARK   43  A    between atoms: _112  and  _113
REMARK   44  A    between atoms: _112  and  _115
REMARK   45  A    between atoms: _115  and  _116
REMARK   46  A    between atoms: _116  and  _117
REMARK   47  A    between atoms: _120  and  _122
REMARK   48  A    between atoms: _122  and  _123
REMARK   49  A    between atoms: _122  and  _125
REMARK   50  A    between atoms: _125  and  _126
REMARK   51  A    between atoms: _129  and  _131
REMARK   52  A    between atoms: _131  and  _132
REMARK   53  A    between atoms: _131  and  _134
REMARK   54  A    between atoms: _134  and  _135
REMARK   55  A    between atoms: _140  and  _141
REMARK   56  A    between atoms: _143  and  _145
REMARK   57  A    between atoms: _145  and  _146
REMARK   58  A    between atoms: _145  and  _148
REMARK   59  A    between atoms: _148  and  _149
REMARK   60  A    between atoms: _152  and  _154
REMARK   61  A    between atoms: _154  and  _155
REMARK   62  A    between atoms: _154  and  _157
REMARK   63  A    between atoms: _157  and  _158
REMARK   64  A    between atoms: _161  and  _163
REMARK   65  A    between atoms: _163  and  _164
REMARK   66  A    between atoms: _167  and  _169
REMARK   67  A    between atoms: _169  and  _170
REMARK   68  A    between atoms: _169  and  _172
REMARK   69  A    between atoms: _175  and  _177
REMARK   70  A    between atoms: _177  and  _178
REMARK   71  A    between atoms: _177  and  _180
REMARK   72  A    between atoms: _180  and  _181
REMARK   73  A    between atoms: _191  and  _193
REMARK   74  A    between atoms: _193  and  _194
REMARK   75  A    between atoms: _193  and  _196
REMARK   76  A    between atoms: _199  and  _201
REMARK   77  A    between atoms: _201  and  _202
REMARK   78  A    between atoms: _201  and  _204
REMARK   79  A    between atoms: _206  and  _208
REMARK   80  A    between atoms: _208  and  _209
REMARK   81  A    between atoms: _208  and  _211
REMARK   82  A    between atoms: _211  and  _212
REMARK   83  A    between atoms: _222  and  _224
REMARK   84  A    between atoms: _224  and  _225
REMARK   85  A    between atoms: _224  and  _227
REMARK   86  A    between atoms: _227  and  _228
REMARK   87  A    between atoms: _238  and  _240
REMARK   88  A    between atoms: _240  and  _241
REMARK   89  A    between atoms: _240  and  _243
REMARK   90  A    between atoms: _243  and  _244
REMARK   91  A    between atoms: _244  and  _245
REMARK   92  A    between atoms: _245  and  _246
REMARK   93  A    between atoms: _246  and  _247
REMARK   94  A    between atoms: _251  and  _253
REMARK   95  A    between atoms: _253  and  _254
REMARK   96  A    between atoms: _253  and  _256
REMARK   97  A    between atoms: _256  and  _257
REMARK   98  A    between atoms: _257  and  _258
REMARK   99  A    between atoms: _260  and  _262
REMARK  100  A    between atoms: _262  and  _263
REMARK  101  A    between atoms: _262  and  _265
REMARK  102  A    between atoms: _265  and  _266
REMARK  103  A    between atoms: _269  and  _271
REMARK  104  A    between atoms: _271  and  _272
REMARK  105  A    between atoms: _271  and  _274
REMARK  106  A    between atoms: _277  and  _279
REMARK  107  A    between atoms: _279  and  _280
REMARK  108  A    between atoms: _279  and  _282
REMARK  109  A    between atoms: _282  and  _283
REMARK  110  A    between atoms: _283  and  _284
REMARK  111  A    between atoms: _286  and  _288
REMARK  112  A    between atoms: _288  and  _289
REMARK  113  A    between atoms: _288  and  _291
REMARK  114  A    between atoms: _291  and  _292
REMARK  115  A    between atoms: _297  and  _299
REMARK  116  A    between atoms: _299  and  _300
REMARK  117  A    between atoms: _299  and  _302
REMARK  118  A    between atoms: _302  and  _303
REMARK  119  A    between atoms: _306  and  _307
REMARK  120  A    between atoms: _312  and  _314
REMARK  121  A    between atoms: _314  and  _315
REMARK  122  A    between atoms: _314  and  _317
REMARK  123  A    between atoms: _317  and  _318
REMARK  124  A    between atoms: _320  and  _322
REMARK  125  A    between atoms: _322  and  _323
REMARK  126  A    between atoms: _322  and  _325
REMARK  127  A    between atoms: _328  and  _330
REMARK  128  A    between atoms: _330  and  _331
REMARK  129  A    between atoms: _330  and  _333
REMARK  130  A    between atoms: _333  and  _334
REMARK  131  A    between atoms: _340  and  _342
REMARK  132  A    between atoms: _342  and  _343
REMARK  133  A    between atoms: _342  and  _345
REMARK  134  A    between atoms: _345  and  _346
REMARK                            x       y       z     vdW  Elec       q    Type
REMARK                         _______ _______ _______ _____ _____    ______ ____
ROOT
ATOM      1  CA  LEU A   1       0.152  29.223  10.454  0.00  0.00    +0.133 C 
ENDROOT
BRANCH   1   2
ATOM      2  N   LEU A   1       0.985  28.474  11.393  0.00  0.00    -0.239 NA
ATOM      3  H   LEU A   1       1.629  27.747  11.020  0.00  0.00    +0.142 HD
ENDBRANCH   1   2
BRANCH   1   4
ATOM      4  C   LEU A   1      -0.677  28.218   9.658  0.00  0.00    +0.224 C 
ATOM      5  O   LEU A   1      -0.154  27.537   8.767  0.00  0.00    -0.287 OA
ENDBRANCH   1   4
BRANCH   1   6
ATOM      6  CB  LEU A   1       1.039  30.047   9.508  0.00  0.00    +0.025 C 
BRANCH   6   7
ATOM      7  CG  LEU A   1       0.392  30.747   8.304  0.00  0.00    +0.002 C 
ATOM      8  CD2 LEU A   1      -0.747  31.640   8.777  0.00  0.00    +0.000 C 
ATOM      9  CD1 LEU A   1       1.443  31.570   7.564  0.00  0.00    +0.000 C 
ENDBRANCH   6   7
ENDBRANCH   1   6
TORSDOF 4
REMARK  Name = ../refined-set-2016/1x8d/1x8d_pocket.pdb
REMARK  134 active torsions:
REMARK  status: ('A' for Active; 'I' for Inactive)
REMARK    1  A    between atoms: _1  and  _3
REMARK    2  A    between atoms: _3  and  _4
REMARK    3  A    between atoms: _3  and  _6
REMARK    4  A    between atoms: _6  and  _7
REMARK    5  A    between atoms: _13  and  _15
REMARK    6  A    between atoms: _15  and  _16
REMARK    7  A    between atoms: _15  and  _18
REMARK    8  A    between atoms: _18  and  _19
REMARK    9  A    between atoms: _19  and  _20
REMARK   10  A    between atoms: _22  and  _24
REMARK   11  A    between atoms: _24  and  _25
REMARK   12  A    between atoms: _24  and  _27
REMARK   13  A    between atoms: _27  and  _28
REMARK   14  A    between atoms: _28  and  _29
REMARK   15  A    between atoms: _34  and  _36
REMARK   16  A    between atoms: _36  and  _37
REMARK   17  A    between atoms: _36  and  _39
REMARK   18  A    between atoms: _39  and  _40
REMARK   19  A    between atoms: _45  and  _46
REMARK   20  A    between atoms: _48  and  _50
REMARK   21  A    between atoms: _50  and  _51
REMARK   22  A    between atoms: _50  and  _53
REMARK   23  A    between atoms: _53  and  _54
REMARK   24  A    between atoms: _54  and  _55
REMARK   25  A    between atoms: _55  and  _56
REMARK   26  A    between atoms: _65  and  _67
REMARK   27  A    between atoms: _67  and  _68
REMARK   28  A    between atoms: _67  and  _70
REMARK   29  A    between atoms: _70  and  _71
REMARK   30  A    between atoms: _76  and  _78
REMARK   31  A    between atoms: _78  and  _79
REMARK   32  A    between atoms: _78  and  _81
REMARK   33  A    between atoms: _81  and  _82
REMARK   34  A    between atoms: _85  and  _87
REMARK   35  A    between atoms: _87  and  _88
REMARK   36  A    between atoms: _87  and  _90
REMARK   37  A    between atoms: _90  and  _91
REMARK   38  A    between atoms: _101  and  _103
REMARK   39  A    between atoms: _103  and  _104
REMARK   40  A    between atoms: _103  and  _106
REMARK   41  A    between atoms: _106  and  _107
REMARK   42  A    between atoms: _110  and  _112
REMARK   43  A    between atoms: _112  and  _113
REMARK   44  A    between atoms: _112  and  _115
REMARK   45  A    between atoms: _115  and  _116
REMARK   46  A    between atoms: _116  and  _117
REMARK   47  A    between atoms: _120  and  _122
REMARK   48  A    between atoms: _122  and  _123
REMARK   49  A    between atoms: _122  and  _125
REMARK   50  A    between atoms: _125  and  _126
REMARK   51  A    between atoms: _129  and  _131
REMARK   52  A    between atoms: _131  and  _132
REMARK   53  A    between atoms: _131  and  _134
REMARK   54  A    between atoms: _134  and  _135
REMARK   55  A    between atoms: _140  and  _141
REMARK   56  A    between atoms: _143  and  _145
REMARK   57  A    between atoms: _145  and  _146
REMARK   58  A    between atoms: _145  and  _148
REMARK   59  A    between atoms: _148  and  _149
REMARK   60  A    between atoms: _152  and  _154
REMARK   61  A    between atoms: _154  and  _155
REMARK   62  A    between atoms: _154  and  _157
REMARK   63  A    between atoms: _157  and  _158
REMARK   64  A    between atoms: _161  and  _163
REMARK   65  A    between atoms: _163  and  _164
REMARK   66  A    between atoms: _167  and  _169
REMARK   67  A    between atoms: _169  and  _170
REMARK   68  A    between atoms: _169  and  _172
REMARK   69  A    between atoms: _175  and  _177
REMARK   70  A    between atoms: _177  and  _178
REMARK   71  A    between atoms: _177  and  _180
REMARK   72  A    between atoms: _180  and  _181
REMARK   73  A    between atoms: _191  and  _193
REMARK   74  A    between atoms: _193  and  _194
REMARK   75  A    between atoms: _193  and  _196
REMARK   76  A    between atoms: _199  and  _201
REMARK   77  A    between atoms: _201  and  _202
REMARK   78  A    between atoms: _201  and  _204
REMARK   79  A    between atoms: _206  and  _208
REMARK   80  A    between atoms: _208  and  _209
REMARK   81  A    between atoms: _208  and  _211
REMARK   82  A    between atoms: _211  and  _212
REMARK   83  A    between atoms: _222  and  _224
REMARK   84  A    between atoms: _224  and  _225
REMARK   85  A    between atoms: _224  and  _227
REMARK   86  A    between atoms: _227  and  _228
REMARK   87  A    between atoms: _238  and  _240
REMARK   88  A    between atoms: _240  and  _241
REMARK   89  A    between atoms: _240  and  _243
REMARK   90  A    between atoms: _243  and  _244
REMARK   91  A    between atoms: _244  and  _245
REMARK   92  A    between atoms: _245  and  _246
REMARK   93  A    between atoms: _246  and  _247
REMARK   94  A    between atoms: _251  and  _253
REMARK   95  A    between atoms: _253  and  _254
REMARK   96  A    between atoms: _253  and  _256
REMARK   97  A    between atoms: _256  and  _257
REMARK   98  A    between atoms: _257  and  _258
REMARK   99  A    between atoms: _260  and  _262
REMARK  100  A    between atoms: _262  and  _263
REMARK  101  A    between atoms: _262  and  _265
REMARK  102  A    between atoms: _265  and  _266
REMARK  103  A    between atoms: _269  and  _271
REMARK  104  A    between atoms: _271  and  _272
REMARK  105  A    between atoms: _271  and  _274
REMARK  106  A    between atoms: _277  and  _279
REMARK  107  A    between atoms: _279  and  _280
REMARK  108  A    between atoms: _279  and  _282
REMARK  109  A    between atoms: _282  and  _283
REMARK  110  A    between atoms: _283  and  _284
REMARK  111  A    between atoms: _286  and  _288
REMARK  112  A    between atoms: _288  and  _289
REMARK  113  A    between atoms: _288  and  _291
REMARK  114  A    between atoms: _291  and  _292
REMARK  115  A    between atoms: _297  and  _299
REMARK  116  A    between atoms: _299  and  _300
REMARK  117  A    between atoms: _299  and  _302
REMARK  118  A    between atoms: _302  and  _303
REMARK  119  A    between atoms: _306  and  _307
REMARK  120  A    between atoms: _312  and  _314
REMARK  121  A    between atoms: _314  and  _315
REMARK  122  A    between atoms: _314  and  _317
REMARK  123  A    between atoms: _317  and  _318
REMARK  124  A    between atoms: _320  and  _322
REMARK  125  A    between atoms: _322  and  _323
REMARK  126  A    between atoms: _322  and  _325
REMARK  127  A    between atoms: _328  and  _330
REMARK  128  A    between atoms: _330  and  _331
REMARK  129  A    between atoms: _330  and  _333
REMARK  130  A    between atoms: _333  and  _334
REMARK  131  A    between atoms: _340  and  _342
REMARK  132  A    between atoms: _342  and  _343
REMARK  133  A    between atoms: _342  and  _345
REMARK  134  A    between atoms: _345  and  _346
REMARK                            x       y       z     vdW  Elec       q    Type
REMARK                         _______ _______ _______ _____ _____    ______ ____
ROOT
ATOM      1  O   HOH     1       9.739  32.734   4.272  0.00  0.00    +0.000 OA
ENDROOT
TORSDOF 0
REMARK  Name = ../refined-set-2016/1x8d/1x8d_pocket.pdb
REMARK  134 active torsions:
REMARK  status: ('A' for Active; 'I' for Inactive)
REMARK    1  A    between atoms: _1  and  _3
REMARK    2  A    between atoms: _3  and  _4
REMARK    3  A    between atoms: _3  and  _6
REMARK    4  A    between atoms: _6  and  _7
REMARK    5  A    between atoms: _13  and  _15
REMARK    6  A    between atoms: _15  and  _16
REMARK    7  A    between atoms: _15  and  _18
REMARK    8  A    between atoms: _18  and  _19
REMARK    9  A    between atoms: _19  and  _20
REMARK   10  A    between atoms: _22  and  _24
REMARK   11  A    between atoms: _24  and  _25
REMARK   12  A    between atoms: _24  and  _27
REMARK   13  A    between atoms: _27  and  _28
REMARK   14  A    between atoms: _28  and  _29
REMARK   15  A    between atoms: _34  and  _36
REMARK   16  A    between atoms: _36  and  _37
REMARK   17  A    between atoms: _36  and  _39
REMARK   18  A    between atoms: _39  and  _40
REMARK   19  A    between atoms: _45  and  _46
REMARK   20  A    between atoms: _48  and  _50
REMARK   21  A    between atoms: _50  and  _51
REMARK   22  A    between atoms: _50  and  _53
REMARK   23  A    between atoms: _53  and  _54
REMARK   24  A    between atoms: _54  and  _55
REMARK   25  A    between atoms: _55  and  _56
REMARK   26  A    between atoms: _65  and  _67
REMARK   27  A    between atoms: _67  and  _68
REMARK   28  A    between atoms: _67  and  _70
REMARK   29  A    between atoms: _70  and  _71
REMARK   30  A    between atoms: _76  and  _78
REMARK   31  A    between atoms: _78  and  _79
REMARK   32  A    between atoms: _78  and  _81
REMARK   33  A    between atoms: _81  and  _82
REMARK   34  A    between atoms: _85  and  _87
REMARK   35  A    between atoms: _87  and  _88
REMARK   36  A    between atoms: _87  and  _90
REMARK   37  A    between atoms: _90  and  _91
REMARK   38  A    between atoms: _101  and  _103
REMARK   39  A    between atoms: _103  and  _104
REMARK   40  A    between atoms: _103  and  _106
REMARK   41  A    between atoms: _106  and  _107
REMARK   42  A    between atoms: _110  and  _112
REMARK   43  A    between atoms: _112  and  _113
REMARK   44  A    between atoms: _112  and  _115
REMARK   45  A    between atoms: _115  and  _116
REMARK   46  A    between atoms: _116  and  _117
REMARK   47  A    between atoms: _120  and  _122
REMARK   48  A    between atoms: _122  and  _123
REMARK   49  A    between atoms: _122  and  _125
REMARK   50  A    between atoms: _125  and  _126
REMARK   51  A    between atoms: _129  and  _131
REMARK   52  A    between atoms: _131  and  _132
REMARK   53  A    between atoms: _131  and  _134
REMARK   54  A    between atoms: _134  and  _135
REMARK   55  A    between atoms: _140  and  _141
REMARK   56  A    between atoms: _143  and  _145
REMARK   57  A    between atoms: _145  and  _146
REMARK   58  A    between atoms: _145  and  _148
REMARK   59  A    between atoms: _148  and  _149
REMARK   60  A    between atoms: _152  and  _154
REMARK   61  A    between atoms: _154  and  _155
REMARK   62  A    between atoms: _154  and  _157
REMARK   63  A    between atoms: _157  and  _158
REMARK   64  A    between atoms: _161  and  _163
REMARK   65  A    between atoms: _163  and  _164
REMARK   66  A    between atoms: _167  and  _169
REMARK   67  A    between atoms: _169  and  _170
REMARK   68  A    between atoms: _169  and  _172
REMARK   69  A    between atoms: _175  and  _177
REMARK   70  A    between atoms: _177  and  _178
REMARK   71  A    between atoms: _177  and  _180
REMARK   72  A    between atoms: _180  and  _181
REMARK   73  A    between atoms: _191  and  _193
REMARK   74  A    between atoms: _193  and  _194
REMARK   75  A    between atoms: _193  and  _196
REMARK   76  A    between atoms: _199  and  _201
REMARK   77  A    between atoms: _201  and  _202
REMARK   78  A    between atoms: _201  and  _204
REMARK   79  A    between atoms: _206  and  _208
REMARK   80  A    between atoms: _208  and  _209
REMARK   81  A    between atoms: _208  and  _211
REMARK   82  A    between atoms: _211  and  _212
REMARK   83  A    between atoms: _222  and  _224
REMARK   84  A    between atoms: _224  and  _225
REMARK   85  A    between atoms: _224  and  _227
REMARK   86  A    between atoms: _227  and  _228
REMARK   87  A    between atoms: _238  and  _240
REMARK   88  A    between atoms: _240  and  _241
REMARK   89  A    between atoms: _240  and  _243
REMARK   90  A    between atoms: _243  and  _244
REMARK   91  A    between atoms: _244  and  _245
REMARK   92  A    between atoms: _245  and  _246
REMARK   93  A    between atoms: _246  and  _247
REMARK   94  A    between atoms: _251  and  _253
REMARK   95  A    between atoms: _253  and  _254
REMARK   96  A    between atoms: _253  and  _256
REMARK   97  A    between atoms: _256  and  _257
REMARK   98  A    between atoms: _257  and  _258
REMARK   99  A    between atoms: _260  and  _262
REMARK  100  A    between atoms: _262  and  _263
REMARK  101  A    between atoms: _262  and  _265
REMARK  102  A    between atoms: _265  and  _266
REMARK  103  A    between atoms: _269  and  _271
REMARK  104  A    between atoms: _271  and  _272
REMARK  105  A    between atoms: _271  and  _274
REMARK  106  A    between atoms: _277  and  _279
REMARK  107  A    between atoms: _279  and  _280
REMARK  108  A    between atoms: _279  and  _282
REMARK  109  A    between atoms: _282  and  _283
REMARK  110  A    between atoms: _283  and  _284
REMARK  111  A    between atoms: _286  and  _288
REMARK  112  A    between atoms: _288  and  _289
REMARK  113  A    between atoms: _288  and  _291
REMARK  114  A    between atoms: _291  and  _292
REMARK  115  A    between atoms: _297  and  _299
REMARK  116  A    between atoms: _299  and  _300
REMARK  117  A    between atoms: _299  and  _302
REMARK  118  A    between atoms: _302  and  _303
REMARK  119  A    between atoms: _306  and  _307
REMARK  120  A    between atoms: _312  and  _314
REMARK  121  A    between atoms: _314  and  _315
REMARK  122  A    between atoms: _314  and  _317
REMARK  123  A    between atoms: _317  and  _318
REMARK  124  A    between atoms: _320  and  _322
REMARK  125  A    between atoms: _322  and  _323
REMARK  126  A    between atoms: _322  and  _325
REMARK  127  A    between atoms: _328  and  _330
REMARK  128  A    between atoms: _330  and  _331
REMARK  129  A    between atoms: _330  and  _333
REMARK  130  A    between atoms: _333  and  _334
REMARK  131  A    between atoms: _340  and  _342
REMARK  132  A    between atoms: _342  and  _343
REMARK  133  A    between atoms: _342  and  _345
REMARK  134  A    between atoms: _345  and  _346
REMARK                            x       y       z     vdW  Elec       q    Type
REMARK                         _______ _______ _______ _____ _____    ______ ____
ROOT
ATOM      1  O   HOH     1      17.406  35.050   8.386  0.00  0.00    +0.000 OA
ENDROOT
TORSDOF 0
REMARK  Name = ../refined-set-2016/1x8d/1x8d_pocket.pdb
REMARK  134 active torsions:
REMARK  status: ('A' for Active; 'I' for Inactive)
REMARK    1  A    between atoms: _1  and  _3
REMARK    2  A    between atoms: _3  and  _4
REMARK    3  A    between atoms: _3  and  _6
REMARK    4  A    between atoms: _6  and  _7
REMARK    5  A    between atoms: _13  and  _15
REMARK    6  A    between atoms: _15  and  _16
REMARK    7  A    between atoms: _15  and  _18
REMARK    8  A    between atoms: _18  and  _19
REMARK    9  A    between atoms: _19  and  _20
REMARK   10  A    between atoms: _22  and  _24
REMARK   11  A    between atoms: _24  and  _25
REMARK   12  A    between atoms: _24  and  _27
REMARK   13  A    between atoms: _27  and  _28
REMARK   14  A    between atoms: _28  and  _29
REMARK   15  A    between atoms: _34  and  _36
REMARK   16  A    between atoms: _36  and  _37
REMARK   17  A    between atoms: _36  and  _39
REMARK   18  A    between atoms: _39  and  _40
REMARK   19  A    between atoms: _45  and  _46
REMARK   20  A    between atoms: _48  and  _50
REMARK   21  A    between atoms: _50  and  _51
REMARK   22  A    between atoms: _50  and  _53
REMARK   23  A    between atoms: _53  and  _54
REMARK   24  A    between atoms: _54  and  _55
REMARK   25  A    between atoms: _55  and  _56
REMARK   26  A    between atoms: _65  and  _67
REMARK   27  A    between atoms: _67  and  _68
REMARK   28  A    between atoms: _67  and  _70
REMARK   29  A    between atoms: _70  and  _71
REMARK   30  A    between atoms: _76  and  _78
REMARK   31  A    between atoms: _78  and  _79
REMARK   32  A    between atoms: _78  and  _81
REMARK   33  A    between atoms: _81  and  _82
REMARK   34  A    between atoms: _85  and  _87
REMARK   35  A    between atoms: _87  and  _88
REMARK   36  A    between atoms: _87  and  _90
REMARK   37  A    between atoms: _90  and  _91
REMARK   38  A    between atoms: _101  and  _103
REMARK   39  A    between atoms: _103  and  _104
REMARK   40  A    between atoms: _103  and  _106
REMARK   41  A    between atoms: _106  and  _107
REMARK   42  A    between atoms: _110  and  _112
REMARK   43  A    between atoms: _112  and  _113
REMARK   44  A    between atoms: _112  and  _115
REMARK   45  A    between atoms: _115  and  _116
REMARK   46  A    between atoms: _116  and  _117
REMARK   47  A    between atoms: _120  and  _122
REMARK   48  A    between atoms: _122  and  _123
REMARK   49  A    between atoms: _122  and  _125
REMARK   50  A    between atoms: _125  and  _126
REMARK   51  A    between atoms: _129  and  _131
REMARK   52  A    between atoms: _131  and  _132
REMARK   53  A    between atoms: _131  and  _134
REMARK   54  A    between atoms: _134  and  _135
REMARK   55  A    between atoms: _140  and  _141
REMARK   56  A    between atoms: _143  and  _145
REMARK   57  A    between atoms: _145  and  _146
REMARK   58  A    between atoms: _145  and  _148
REMARK   59  A    between atoms: _148  and  _149
REMARK   60  A    between atoms: _152  and  _154
REMARK   61  A    between atoms: _154  and  _155
REMARK   62  A    between atoms: _154  and  _157
REMARK   63  A    between atoms: _157  and  _158
REMARK   64  A    between atoms: _161  and  _163
REMARK   65  A    between atoms: _163  and  _164
REMARK   66  A    between atoms: _167  and  _169
REMARK   67  A    between atoms: _169  and  _170
REMARK   68  A    between atoms: _169  and  _172
REMARK   69  A    between atoms: _175  and  _177
REMARK   70  A    between atoms: _177  and  _178
REMARK   71  A    between atoms: _177  and  _180
REMARK   72  A    between atoms: _180  and  _181
REMARK   73  A    between atoms: _191  and  _193
REMARK   74  A    between atoms: _193  and  _194
REMARK   75  A    between atoms: _193  and  _196
REMARK   76  A    between atoms: _199  and  _201
REMARK   77  A    between atoms: _201  and  _202
REMARK   78  A    between atoms: _201  and  _204
REMARK   79  A    between atoms: _206  and  _208
REMARK   80  A    between atoms: _208  and  _209
REMARK   81  A    between atoms: _208  and  _211
REMARK   82  A    between atoms: _211  and  _212
REMARK   83  A    between atoms: _222  and  _224
REMARK   84  A    between atoms: _224  and  _225
REMARK   85  A    between atoms: _224  and  _227
REMARK   86  A    between atoms: _227  and  _228
REMARK   87  A    between atoms: _238  and  _240
REMARK   88  A    between atoms: _240  and  _241
REMARK   89  A    between atoms: _240  and  _243
REMARK   90  A    between atoms: _243  and  _244
REMARK   91  A    between atoms: _244  and  _245
REMARK   92  A    between atoms: _245  and  _246
REMARK   93  A    between atoms: _246  and  _247
REMARK   94  A    between atoms: _251  and  _253
REMARK   95  A    between atoms: _253  and  _254
REMARK   96  A    between atoms: _253  and  _256
REMARK   97  A    between atoms: _256  and  _257
REMARK   98  A    between atoms: _257  and  _258
REMARK   99  A    between atoms: _260  and  _262
REMARK  100  A    between atoms: _262  and  _263
REMARK  101  A    between atoms: _262  and  _265
REMARK  102  A    between atoms: _265  and  _266
REMARK  103  A    between atoms: _269  and  _271
REMARK  104  A    between atoms: _271  and  _272
REMARK  105  A    between atoms: _271  and  _274
REMARK  106  A    between atoms: _277  and  _279
REMARK  107  A    between atoms: _279  and  _280
REMARK  108  A    between atoms: _279  and  _282
REMARK  109  A    between atoms: _282  and  _283
REMARK  110  A    between atoms: _283  and  _284
REMARK  111  A    between atoms: _286  and  _288
REMARK  112  A    between atoms: _288  and  _289
REMARK  113  A    between atoms: _288  and  _291
REMARK  114  A    between atoms: _291  and  _292
REMARK  115  A    between atoms: _297  and  _299
REMARK  116  A    between atoms: _299  and  _300
REMARK  117  A    between atoms: _299  and  _302
REMARK  118  A    between atoms: _302  and  _303
REMARK  119  A    between atoms: _306  and  _307
REMARK  120  A    between atoms: _312  and  _314
REMARK  121  A    between atoms: _314  and  _315
REMARK  122  A    between atoms: _314  and  _317
REMARK  123  A    between atoms: _317  and  _318
REMARK  124  A    between atoms: _320  and  _322
REMARK  125  A    between atoms: _322  and  _323
REMARK  126  A    between atoms: _322  and  _325
REMARK  127  A    between atoms: _328  and  _330
REMARK  128  A    between atoms: _330  and  _331
REMARK  129  A    between atoms: _330  and  _333
REMARK  130  A    between atoms: _333  and  _334
REMARK  131  A    between atoms: _340  and  _342
REMARK  132  A    between atoms: _342  and  _343
REMARK  133  A    between atoms: _342  and  _345
REMARK  134  A    between atoms: _345  and  _346
REMARK                            x       y       z     vdW  Elec       q    Type
REMARK                         _______ _______ _______ _____ _____    ______ ____
ROOT
ATOM      1  O   HOH     1      15.081  33.631   9.345  0.00  0.00    +0.000 OA
ENDROOT
TORSDOF 0
REMARK  Name = ../refined-set-2016/1x8d/1x8d_pocket.pdb
REMARK  134 active torsions:
REMARK  status: ('A' for Active; 'I' for Inactive)
REMARK    1  A    between atoms: _1  and  _3
REMARK    2  A    between atoms: _3  and  _4
REMARK    3  A    between atoms: _3  and  _6
REMARK    4  A    between atoms: _6  and  _7
REMARK    5  A    between atoms: _13  and  _15
REMARK    6  A    between atoms: _15  and  _16
REMARK    7  A    between atoms: _15  and  _18
REMARK    8  A    between atoms: _18  and  _19
REMARK    9  A    between atoms: _19  and  _20
REMARK   10  A    between atoms: _22  and  _24
REMARK   11  A    between atoms: _24  and  _25
REMARK   12  A    between atoms: _24  and  _27
REMARK   13  A    between atoms: _27  and  _28
REMARK   14  A    between atoms: _28  and  _29
REMARK   15  A    between atoms: _34  and  _36
REMARK   16  A    between atoms: _36  and  _37
REMARK   17  A    between atoms: _36  and  _39
REMARK   18  A    between atoms: _39  and  _40
REMARK   19  A    between atoms: _45  and  _46
REMARK   20  A    between atoms: _48  and  _50
REMARK   21  A    between atoms: _50  and  _51
REMARK   22  A    between atoms: _50  and  _53
REMARK   23  A    between atoms: _53  and  _54
REMARK   24  A    between atoms: _54  and  _55
REMARK   25  A    between atoms: _55  and  _56
REMARK   26  A    between atoms: _65  and  _67
REMARK   27  A    between atoms: _67  and  _68
REMARK   28  A    between atoms: _67  and  _70
REMARK   29  A    between atoms: _70  and  _71
REMARK   30  A    between atoms: _76  and  _78
REMARK   31  A    between atoms: _78  and  _79
REMARK   32  A    between atoms: _78  and  _81
REMARK   33  A    between atoms: _81  and  _82
REMARK   34  A    between atoms: _85  and  _87
REMARK   35  A    between atoms: _87  and  _88
REMARK   36  A    between atoms: _87  and  _90
REMARK   37  A    between atoms: _90  and  _91
REMARK   38  A    between atoms: _101  and  _103
REMARK   39  A    between atoms: _103  and  _104
REMARK   40  A    between atoms: _103  and  _106
REMARK   41  A    between atoms: _106  and  _107
REMARK   42  A    between atoms: _110  and  _112
REMARK   43  A    between atoms: _112  and  _113
REMARK   44  A    between atoms: _112  and  _115
REMARK   45  A    between atoms: _115  and  _116
REMARK   46  A    between atoms: _116  and  _117
REMARK   47  A    between atoms: _120  and  _122
REMARK   48  A    between atoms: _122  and  _123
REMARK   49  A    between atoms: _122  and  _125
REMARK   50  A    between atoms: _125  and  _126
REMARK   51  A    between atoms: _129  and  _131
REMARK   52  A    between atoms: _131  and  _132
REMARK   53  A    between atoms: _131  and  _134
REMARK   54  A    between atoms: _134  and  _135
REMARK   55  A    between atoms: _140  and  _141
REMARK   56  A    between atoms: _143  and  _145
REMARK   57  A    between atoms: _145  and  _146
REMARK   58  A    between atoms: _145  and  _148
REMARK   59  A    between atoms: _148  and  _149
REMARK   60  A    between atoms: _152  and  _154
REMARK   61  A    between atoms: _154  and  _155
REMARK   62  A    between atoms: _154  and  _157
REMARK   63  A    between atoms: _157  and  _158
REMARK   64  A    between atoms: _161  and  _163
REMARK   65  A    between atoms: _163  and  _164
REMARK   66  A    between atoms: _167  and  _169
REMARK   67  A    between atoms: _169  and  _170
REMARK   68  A    between atoms: _169  and  _172
REMARK   69  A    between atoms: _175  and  _177
REMARK   70  A    between atoms: _177  and  _178
REMARK   71  A    between atoms: _177  and  _180
REMARK   72  A    between atoms: _180  and  _181
REMARK   73  A    between atoms: _191  and  _193
REMARK   74  A    between atoms: _193  and  _194
REMARK   75  A    between atoms: _193  and  _196
REMARK   76  A    between atoms: _199  and  _201
REMARK   77  A    between atoms: _201  and  _202
REMARK   78  A    between atoms: _201  and  _204
REMARK   79  A    between atoms: _206  and  _208
REMARK   80  A    between atoms: _208  and  _209
REMARK   81  A    between atoms: _208  and  _211
REMARK   82  A    between atoms: _211  and  _212
REMARK   83  A    between atoms: _222  and  _224
REMARK   84  A    between atoms: _224  and  _225
REMARK   85  A    between atoms: _224  and  _227
REMARK   86  A    between atoms: _227  and  _228
REMARK   87  A    between atoms: _238  and  _240
REMARK   88  A    between atoms: _240  and  _241
REMARK   89  A    between atoms: _240  and  _243
REMARK   90  A    between atoms: _243  and  _244
REMARK   91  A    between atoms: _244  and  _245
REMARK   92  A    between atoms: _245  and  _246
REMARK   93  A    between atoms: _246  and  _247
REMARK   94  A    between atoms: _251  and  _253
REMARK   95  A    between atoms: _253  and  _254
REMARK   96  A    between atoms: _253  and  _256
REMARK   97  A    between atoms: _256  and  _257
REMARK   98  A    between atoms: _257  and  _258
REMARK   99  A    between atoms: _260  and  _262
REMARK  100  A    between atoms: _262  and  _263
REMARK  101  A    between atoms: _262  and  _265
REMARK  102  A    between atoms: _265  and  _266
REMARK  103  A    between atoms: _269  and  _271
REMARK  104  A    between atoms: _271  and  _272
REMARK  105  A    between atoms: _271  and  _274
REMARK  106  A    between atoms: _277  and  _279
REMARK  107  A    between atoms: _279  and  _280
REMARK  108  A    between atoms: _279  and  _282
REMARK  109  A    between atoms: _282  and  _283
REMARK  110  A    between atoms: _283  and  _284
REMARK  111  A    between atoms: _286  and  _288
REMARK  112  A    between atoms: _288  and  _289
REMARK  113  A    between atoms: _288  and  _291
REMARK  114  A    between atoms: _291  and  _292
REMARK  115  A    between atoms: _297  and  _299
REMARK  116  A    between atoms: _299  and  _300
REMARK  117  A    between atoms: _299  and  _302
REMARK  118  A    between atoms: _302  and  _303
REMARK  119  A    between atoms: _306  and  _307
REMARK  120  A    between atoms: _312  and  _314
REMARK  121  A    between atoms: _314  and  _315
REMARK  122  A    between atoms: _314  and  _317
REMARK  123  A    between atoms: _317  and  _318
REMARK  124  A    between atoms: _320  and  _322
REMARK  125  A    between atoms: _322  and  _323
REMARK  126  A    between atoms: _322  and  _325
REMARK  127  A    between atoms: _328  and  _330
REMARK  128  A    between atoms: _330  and  _331
REMARK  129  A    between atoms: _330  and  _333
REMARK  130  A    between atoms: _333  and  _334
REMARK  131  A    between atoms: _340  and  _342
REMARK  132  A    between atoms: _342  and  _343
REMARK  133  A    between atoms: _342  and  _345
REMARK  134  A    between atoms: _345  and  _346
REMARK                            x       y       z     vdW  Elec       q    Type
REMARK                         _______ _______ _______ _____ _____    ______ ____
ROOT
ATOM      1  O   HOH     1      16.309  30.977   0.059  0.00  0.00    +0.000 OA
ENDROOT
TORSDOF 0
REMARK  Name = ../refined-set-2016/1x8d/1x8d_pocket.pdb
REMARK  134 active torsions:
REMARK  status: ('A' for Active; 'I' for Inactive)
REMARK    1  A    between atoms: _1  and  _3
REMARK    2  A    between atoms: _3  and  _4
REMARK    3  A    between atoms: _3  and  _6
REMARK    4  A    between atoms: _6  and  _7
REMARK    5  A    between atoms: _13  and  _15
REMARK    6  A    between atoms: _15  and  _16
REMARK    7  A    between atoms: _15  and  _18
REMARK    8  A    between atoms: _18  and  _19
REMARK    9  A    between atoms: _19  and  _20
REMARK   10  A    between atoms: _22  and  _24
REMARK   11  A    between atoms: _24  and  _25
REMARK   12  A    between atoms: _24  and  _27
REMARK   13  A    between atoms: _27  and  _28
REMARK   14  A    between atoms: _28  and  _29
REMARK   15  A    between atoms: _34  and  _36
REMARK   16  A    between atoms: _36  and  _37
REMARK   17  A    between atoms: _36  and  _39
REMARK   18  A    between atoms: _39  and  _40
REMARK   19  A    between atoms: _45  and  _46
REMARK   20  A    between atoms: _48  and  _50
REMARK   21  A    between atoms: _50  and  _51
REMARK   22  A    between atoms: _50  and  _53
REMARK   23  A    between atoms: _53  and  _54
REMARK   24  A    between atoms: _54  and  _55
REMARK   25  A    between atoms: _55  and  _56
REMARK   26  A    between atoms: _65  and  _67
REMARK   27  A    between atoms: _67  and  _68
REMARK   28  A    between atoms: _67  and  _70
REMARK   29  A    between atoms: _70  and  _71
REMARK   30  A    between atoms: _76  and  _78
REMARK   31  A    between atoms: _78  and  _79
REMARK   32  A    between atoms: _78  and  _81
REMARK   33  A    between atoms: _81  and  _82
REMARK   34  A    between atoms: _85  and  _87
REMARK   35  A    between atoms: _87  and  _88
REMARK   36  A    between atoms: _87  and  _90
REMARK   37  A    between atoms: _90  and  _91
REMARK   38  A    between atoms: _101  and  _103
REMARK   39  A    between atoms: _103  and  _104
REMARK   40  A    between atoms: _103  and  _106
REMARK   41  A    between atoms: _106  and  _107
REMARK   42  A    between atoms: _110  and  _112
REMARK   43  A    between atoms: _112  and  _113
REMARK   44  A    between atoms: _112  and  _115
REMARK   45  A    between atoms: _115  and  _116
REMARK   46  A    between atoms: _116  and  _117
REMARK   47  A    between atoms: _120  and  _122
REMARK   48  A    between atoms: _122  and  _123
REMARK   49  A    between atoms: _122  and  _125
REMARK   50  A    between atoms: _125  and  _126
REMARK   51  A    between atoms: _129  and  _131
REMARK   52  A    between atoms: _131  and  _132
REMARK   53  A    between atoms: _131  and  _134
REMARK   54  A    between atoms: _134  and  _135
REMARK   55  A    between atoms: _140  and  _141
REMARK   56  A    between atoms: _143  and  _145
REMARK   57  A    between atoms: _145  and  _146
REMARK   58  A    between atoms: _145  and  _148
REMARK   59  A    between atoms: _148  and  _149
REMARK   60  A    between atoms: _152  and  _154
REMARK   61  A    between atoms: _154  and  _155
REMARK   62  A    between atoms: _154  and  _157
REMARK   63  A    between atoms: _157  and  _158
REMARK   64  A    between atoms: _161  and  _163
REMARK   65  A    between atoms: _163  and  _164
REMARK   66  A    between atoms: _167  and  _169
REMARK   67  A    between atoms: _169  and  _170
REMARK   68  A    between atoms: _169  and  _172
REMARK   69  A    between atoms: _175  and  _177
REMARK   70  A    between atoms: _177  and  _178
REMARK   71  A    between atoms: _177  and  _180
REMARK   72  A    between atoms: _180  and  _181
REMARK   73  A    between atoms: _191  and  _193
REMARK   74  A    between atoms: _193  and  _194
REMARK   75  A    between atoms: _193  and  _196
REMARK   76  A    between atoms: _199  and  _201
REMARK   77  A    between atoms: _201  and  _202
REMARK   78  A    between atoms: _201  and  _204
REMARK   79  A    between atoms: _206  and  _208
REMARK   80  A    between atoms: _208  and  _209
REMARK   81  A    between atoms: _208  and  _211
REMARK   82  A    between atoms: _211  and  _212
REMARK   83  A    between atoms: _222  and  _224
REMARK   84  A    between atoms: _224  and  _225
REMARK   85  A    between atoms: _224  and  _227
REMARK   86  A    between atoms: _227  and  _228
REMARK   87  A    between atoms: _238  and  _240
REMARK   88  A    between atoms: _240  and  _241
REMARK   89  A    between atoms: _240  and  _243
REMARK   90  A    between atoms: _243  and  _244
REMARK   91  A    between atoms: _244  and  _245
REMARK   92  A    between atoms: _245  and  _246
REMARK   93  A    between atoms: _246  and  _247
REMARK   94  A    between atoms: _251  and  _253
REMARK   95  A    between atoms: _253  and  _254
REMARK   96  A    between atoms: _253  and  _256
REMARK   97  A    between atoms: _256  and  _257
REMARK   98  A    between atoms: _257  and  _258
REMARK   99  A    between atoms: _260  and  _262
REMARK  100  A    between atoms: _262  and  _263
REMARK  101  A    between atoms: _262  and  _265
REMARK  102  A    between atoms: _265  and  _266
REMARK  103  A    between atoms: _269  and  _271
REMARK  104  A    between atoms: _271  and  _272
REMARK  105  A    between atoms: _271  and  _274
REMARK  106  A    between atoms: _277  and  _279
REMARK  107  A    between atoms: _279  and  _280
REMARK  108  A    between atoms: _279  and  _282
REMARK  109  A    between atoms: _282  and  _283
REMARK  110  A    between atoms: _283  and  _284
REMARK  111  A    between atoms: _286  and  _288
REMARK  112  A    between atoms: _288  and  _289
REMARK  113  A    between atoms: _288  and  _291
REMARK  114  A    between atoms: _291  and  _292
REMARK  115  A    between atoms: _297  and  _299
REMARK  116  A    between atoms: _299  and  _300
REMARK  117  A    between atoms: _299  and  _302
REMARK  118  A    between atoms: _302  and  _303
REMARK  119  A    between atoms: _306  and  _307
REMARK  120  A    between atoms: _312  and  _314
REMARK  121  A    between atoms: _314  and  _315
REMARK  122  A    between atoms: _314  and  _317
REMARK  123  A    between atoms: _317  and  _318
REMARK  124  A    between atoms: _320  and  _322
REMARK  125  A    between atoms: _322  and  _323
REMARK  126  A    between atoms: _322  and  _325
REMARK  127  A    between atoms: _328  and  _330
REMARK  128  A    between atoms: _330  and  _331
REMARK  129  A    between atoms: _330  and  _333
REMARK  130  A    between atoms: _333  and  _334
REMARK  131  A    between atoms: _340  and  _342
REMARK  132  A    between atoms: _342  and  _343
REMARK  133  A    between atoms: _342  and  _345
REMARK  134  A    between atoms: _345  and  _346
REMARK                            x       y       z     vdW  Elec       q    Type
REMARK                         _______ _______ _______ _____ _____    ______ ____
ROOT
ATOM      1  O   HOH     1       9.626  30.536   2.767  0.00  0.00    +0.000 OA
ENDROOT
TORSDOF 0
REMARK  Name = ../refined-set-2016/1x8d/1x8d_pocket.pdb
REMARK  134 active torsions:
REMARK  status: ('A' for Active; 'I' for Inactive)
REMARK    1  A    between atoms: _1  and  _3
REMARK    2  A    between atoms: _3  and  _4
REMARK    3  A    between atoms: _3  and  _6
REMARK    4  A    between atoms: _6  and  _7
REMARK    5  A    between atoms: _13  and  _15
REMARK    6  A    between atoms: _15  and  _16
REMARK    7  A    between atoms: _15  and  _18
REMARK    8  A    between atoms: _18  and  _19
REMARK    9  A    between atoms: _19  and  _20
REMARK   10  A    between atoms: _22  and  _24
REMARK   11  A    between atoms: _24  and  _25
REMARK   12  A    between atoms: _24  and  _27
REMARK   13  A    between atoms: _27  and  _28
REMARK   14  A    between atoms: _28  and  _29
REMARK   15  A    between atoms: _34  and  _36
REMARK   16  A    between atoms: _36  and  _37
REMARK   17  A    between atoms: _36  and  _39
REMARK   18  A    between atoms: _39  and  _40
REMARK   19  A    between atoms: _45  and  _46
REMARK   20  A    between atoms: _48  and  _50
REMARK   21  A    between atoms: _50  and  _51
REMARK   22  A    between atoms: _50  and  _53
REMARK   23  A    between atoms: _53  and  _54
REMARK   24  A    between atoms: _54  and  _55
REMARK   25  A    between atoms: _55  and  _56
REMARK   26  A    between atoms: _65  and  _67
REMARK   27  A    between atoms: _67  and  _68
REMARK   28  A    between atoms: _67  and  _70
REMARK   29  A    between atoms: _70  and  _71
REMARK   30  A    between atoms: _76  and  _78
REMARK   31  A    between atoms: _78  and  _79
REMARK   32  A    between atoms: _78  and  _81
REMARK   33  A    between atoms: _81  and  _82
REMARK   34  A    between atoms: _85  and  _87
REMARK   35  A    between atoms: _87  and  _88
REMARK   36  A    between atoms: _87  and  _90
REMARK   37  A    between atoms: _90  and  _91
REMARK   38  A    between atoms: _101  and  _103
REMARK   39  A    between atoms: _103  and  _104
REMARK   40  A    between atoms: _103  and  _106
REMARK   41  A    between atoms: _106  and  _107
REMARK   42  A    between atoms: _110  and  _112
REMARK   43  A    between atoms: _112  and  _113
REMARK   44  A    between atoms: _112  and  _115
REMARK   45  A    between atoms: _115  and  _116
REMARK   46  A    between atoms: _116  and  _117
REMARK   47  A    between atoms: _120  and  _122
REMARK   48  A    between atoms: _122  and  _123
REMARK   49  A    between atoms: _122  and  _125
REMARK   50  A    between atoms: _125  and  _126
REMARK   51  A    between atoms: _129  and  _131
REMARK   52  A    between atoms: _131  and  _132
REMARK   53  A    between atoms: _131  and  _134
REMARK   54  A    between atoms: _134  and  _135
REMARK   55  A    between atoms: _140  and  _141
REMARK   56  A    between atoms: _143  and  _145
REMARK   57  A    between atoms: _145  and  _146
REMARK   58  A    between atoms: _145  and  _148
REMARK   59  A    between atoms: _148  and  _149
REMARK   60  A    between atoms: _152  and  _154
REMARK   61  A    between atoms: _154  and  _155
REMARK   62  A    between atoms: _154  and  _157
REMARK   63  A    between atoms: _157  and  _158
REMARK   64  A    between atoms: _161  and  _163
REMARK   65  A    between atoms: _163  and  _164
REMARK   66  A    between atoms: _167  and  _169
REMARK   67  A    between atoms: _169  and  _170
REMARK   68  A    between atoms: _169  and  _172
REMARK   69  A    between atoms: _175  and  _177
REMARK   70  A    between atoms: _177  and  _178
REMARK   71  A    between atoms: _177  and  _180
REMARK   72  A    between atoms: _180  and  _181
REMARK   73  A    between atoms: _191  and  _193
REMARK   74  A    between atoms: _193  and  _194
REMARK   75  A    between atoms: _193  and  _196
REMARK   76  A    between atoms: _199  and  _201
REMARK   77  A    between atoms: _201  and  _202
REMARK   78  A    between atoms: _201  and  _204
REMARK   79  A    between atoms: _206  and  _208
REMARK   80  A    between atoms: _208  and  _209
REMARK   81  A    between atoms: _208  and  _211
REMARK   82  A    between atoms: _211  and  _212
REMARK   83  A    between atoms: _222  and  _224
REMARK   84  A    between atoms: _224  and  _225
REMARK   85  A    between atoms: _224  and  _227
REMARK   86  A    between atoms: _227  and  _228
REMARK   87  A    between atoms: _238  and  _240
REMARK   88  A    between atoms: _240  and  _241
REMARK   89  A    between atoms: _240  and  _243
REMARK   90  A    between atoms: _243  and  _244
REMARK   91  A    between atoms: _244  and  _245
REMARK   92  A    between atoms: _245  and  _246
REMARK   93  A    between atoms: _246  and  _247
REMARK   94  A    between atoms: _251  and  _253
REMARK   95  A    between atoms: _253  and  _254
REMARK   96  A    between atoms: _253  and  _256
REMARK   97  A    between atoms: _256  and  _257
REMARK   98  A    between atoms: _257  and  _258
REMARK   99  A    between atoms: _260  and  _262
REMARK  100  A    between atoms: _262  and  _263
REMARK  101  A    between atoms: _262  and  _265
REMARK  102  A    between atoms: _265  and  _266
REMARK  103  A    between atoms: _269  and  _271
REMARK  104  A    between atoms: _271  and  _272
REMARK  105  A    between atoms: _271  and  _274
REMARK  106  A    between atoms: _277  and  _279
REMARK  107  A    between atoms: _279  and  _280
REMARK  108  A    between atoms: _279  and  _282
REMARK  109  A    between atoms: _282  and  _283
REMARK  110  A    between atoms: _283  and  _284
REMARK  111  A    between atoms: _286  and  _288
REMARK  112  A    between atoms: _288  and  _289
REMARK  113  A    between atoms: _288  and  _291
REMARK  114  A    between atoms: _291  and  _292
REMARK  115  A    between atoms: _297  and  _299
REMARK  116  A    between atoms: _299  and  _300
REMARK  117  A    between atoms: _299  and  _302
REMARK  118  A    between atoms: _302  and  _303
REMARK  119  A    between atoms: _306  and  _307
REMARK  120  A    between atoms: _312  and  _314
REMARK  121  A    between atoms: _314  and  _315
REMARK  122  A    between atoms: _314  and  _317
REMARK  123  A    between atoms: _317  and  _318
REMARK  124  A    between atoms: _320  and  _322
REMARK  125  A    between atoms: _322  and  _323
REMARK  126  A    between atoms: _322  and  _325
REMARK  127  A    between atoms: _328  and  _330
REMARK  128  A    between atoms: _330  and  _331
REMARK  129  A    between atoms: _330  and  _333
REMARK  130  A    between atoms: _333  and  _334
REMARK  131  A    between atoms: _340  and  _342
REMARK  132  A    between atoms: _342  and  _343
REMARK  133  A    between atoms: _342  and  _345
REMARK  134  A    between atoms: _345  and  _346
REMARK                            x       y       z     vdW  Elec       q    Type
REMARK                         _______ _______ _______ _____ _____    ______ ____
ROOT
ATOM      1  O   HOH     1      16.889  29.281   4.103  0.00  0.00    +0.000 OA
ENDROOT
TORSDOF 0
REMARK  Name = ../refined-set-2016/1x8d/1x8d_pocket.pdb
REMARK  134 active torsions:
REMARK  status: ('A' for Active; 'I' for Inactive)
REMARK    1  A    between atoms: _1  and  _3
REMARK    2  A    between atoms: _3  and  _4
REMARK    3  A    between atoms: _3  and  _6
REMARK    4  A    between atoms: _6  and  _7
REMARK    5  A    between atoms: _13  and  _15
REMARK    6  A    between atoms: _15  and  _16
REMARK    7  A    between atoms: _15  and  _18
REMARK    8  A    between atoms: _18  and  _19
REMARK    9  A    between atoms: _19  and  _20
REMARK   10  A    between atoms: _22  and  _24
REMARK   11  A    between atoms: _24  and  _25
REMARK   12  A    between atoms: _24  and  _27
REMARK   13  A    between atoms: _27  and  _28
REMARK   14  A    between atoms: _28  and  _29
REMARK   15  A    between atoms: _34  and  _36
REMARK   16  A    between atoms: _36  and  _37
REMARK   17  A    between atoms: _36  and  _39
REMARK   18  A    between atoms: _39  and  _40
REMARK   19  A    between atoms: _45  and  _46
REMARK   20  A    between atoms: _48  and  _50
REMARK   21  A    between atoms: _50  and  _51
REMARK   22  A    between atoms: _50  and  _53
REMARK   23  A    between atoms: _53  and  _54
REMARK   24  A    between atoms: _54  and  _55
REMARK   25  A    between atoms: _55  and  _56
REMARK   26  A    between atoms: _65  and  _67
REMARK   27  A    between atoms: _67  and  _68
REMARK   28  A    between atoms: _67  and  _70
REMARK   29  A    between atoms: _70  and  _71
REMARK   30  A    between atoms: _76  and  _78
REMARK   31  A    between atoms: _78  and  _79
REMARK   32  A    between atoms: _78  and  _81
REMARK   33  A    between atoms: _81  and  _82
REMARK   34  A    between atoms: _85  and  _87
REMARK   35  A    between atoms: _87  and  _88
REMARK   36  A    between atoms: _87  and  _90
REMARK   37  A    between atoms: _90  and  _91
REMARK   38  A    between atoms: _101  and  _103
REMARK   39  A    between atoms: _103  and  _104
REMARK   40  A    between atoms: _103  and  _106
REMARK   41  A    between atoms: _106  and  _107
REMARK   42  A    between atoms: _110  and  _112
REMARK   43  A    between atoms: _112  and  _113
REMARK   44  A    between atoms: _112  and  _115
REMARK   45  A    between atoms: _115  and  _116
REMARK   46  A    between atoms: _116  and  _117
REMARK   47  A    between atoms: _120  and  _122
REMARK   48  A    between atoms: _122  and  _123
REMARK   49  A    between atoms: _122  and  _125
REMARK   50  A    between atoms: _125  and  _126
REMARK   51  A    between atoms: _129  and  _131
REMARK   52  A    between atoms: _131  and  _132
REMARK   53  A    between atoms: _131  and  _134
REMARK   54  A    between atoms: _134  and  _135
REMARK   55  A    between atoms: _140  and  _141
REMARK   56  A    between atoms: _143  and  _145
REMARK   57  A    between atoms: _145  and  _146
REMARK   58  A    between atoms: _145  and  _148
REMARK   59  A    between atoms: _148  and  _149
REMARK   60  A    between atoms: _152  and  _154
REMARK   61  A    between atoms: _154  and  _155
REMARK   62  A    between atoms: _154  and  _157
REMARK   63  A    between atoms: _157  and  _158
REMARK   64  A    between atoms: _161  and  _163
REMARK   65  A    between atoms: _163  and  _164
REMARK   66  A    between atoms: _167  and  _169
REMARK   67  A    between atoms: _169  and  _170
REMARK   68  A    between atoms: _169  and  _172
REMARK   69  A    between atoms: _175  and  _177
REMARK   70  A    between atoms: _177  and  _178
REMARK   71  A    between atoms: _177  and  _180
REMARK   72  A    between atoms: _180  and  _181
REMARK   73  A    between atoms: _191  and  _193
REMARK   74  A    between atoms: _193  and  _194
REMARK   75  A    between atoms: _193  and  _196
REMARK   76  A    between atoms: _199  and  _201
REMARK   77  A    between atoms: _201  and  _202
REMARK   78  A    between atoms: _201  and  _204
REMARK   79  A    between atoms: _206  and  _208
REMARK   80  A    between atoms: _208  and  _209
REMARK   81  A    between atoms: _208  and  _211
REMARK   82  A    between atoms: _211  and  _212
REMARK   83  A    between atoms: _222  and  _224
REMARK   84  A    between atoms: _224  and  _225
REMARK   85  A    between atoms: _224  and  _227
REMARK   86  A    between atoms: _227  and  _228
REMARK   87  A    between atoms: _238  and  _240
REMARK   88  A    between atoms: _240  and  _241
REMARK   89  A    between atoms: _240  and  _243
REMARK   90  A    between atoms: _243  and  _244
REMARK   91  A    between atoms: _244  and  _245
REMARK   92  A    between atoms: _245  and  _246
REMARK   93  A    between atoms: _246  and  _247
REMARK   94  A    between atoms: _251  and  _253
REMARK   95  A    between atoms: _253  and  _254
REMARK   96  A    between atoms: _253  and  _256
REMARK   97  A    between atoms: _256  and  _257
REMARK   98  A    between atoms: _257  and  _258
REMARK   99  A    between atoms: _260  and  _262
REMARK  100  A    between atoms: _262  and  _263
REMARK  101  A    between atoms: _262  and  _265
REMARK  102  A    between atoms: _265  and  _266
REMARK  103  A    between atoms: _269  and  _271
REMARK  104  A    between atoms: _271  and  _272
REMARK  105  A    between atoms: _271  and  _274
REMARK  106  A    between atoms: _277  and  _279
REMARK  107  A    between atoms: _279  and  _280
REMARK  108  A    between atoms: _279  and  _282
REMARK  109  A    between atoms: _282  and  _283
REMARK  110  A    between atoms: _283  and  _284
REMARK  111  A    between atoms: _286  and  _288
REMARK  112  A    between atoms: _288  and  _289
REMARK  113  A    between atoms: _288  and  _291
REMARK  114  A    between atoms: _291  and  _292
REMARK  115  A    between atoms: _297  and  _299
REMARK  116  A    between atoms: _299  and  _300
REMARK  117  A    between atoms: _299  and  _302
REMARK  118  A    between atoms: _302  and  _303
REMARK  119  A    between atoms: _306  and  _307
REMARK  120  A    between atoms: _312  and  _314
REMARK  121  A    between atoms: _314  and  _315
REMARK  122  A    between atoms: _314  and  _317
REMARK  123  A    between atoms: _317  and  _318
REMARK  124  A    between atoms: _320  and  _322
REMARK  125  A    between atoms: _322  and  _323
REMARK  126  A    between atoms: _322  and  _325
REMARK  127  A    between atoms: _328  and  _330
REMARK  128  A    between atoms: _330  and  _331
REMARK  129  A    between atoms: _330  and  _333
REMARK  130  A    between atoms: _333  and  _334
REMARK  131  A    between atoms: _340  and  _342
REMARK  132  A    between atoms: _342  and  _343
REMARK  133  A    between atoms: _342  and  _345
REMARK  134  A    between atoms: _345  and  _346
REMARK                            x       y       z     vdW  Elec       q    Type
REMARK                         _______ _______ _______ _____ _____    ______ ____
ROOT
ATOM      1  O   HOH     1      11.673  29.429   4.544  0.00  0.00    +0.000 OA
ENDROOT
TORSDOF 0
