REMARK  Name = ../refined-set-2016/2i2c/2i2c_pocket.pdb
REMARK  231 active torsions:
REMARK  status: ('A' for Active; 'I' for Inactive)
REMARK    1  A    between atoms: _1  and  _3
REMARK    2  A    between atoms: _3  and  _4
REMARK    3  A    between atoms: _6  and  _8
REMARK    4  A    between atoms: _8  and  _9
REMARK    5  A    between atoms: _8  and  _11
REMARK    6  A    between atoms: _11  and  _12
REMARK    7  A    between atoms: _15  and  _17
REMARK    8  A    between atoms: _17  and  _18
REMARK    9  A    between atoms: _20  and  _22
REMARK   10  A    between atoms: _22  and  _23
REMARK   11  A    between atoms: _22  and  _25
REMARK   12  A    between atoms: _25  and  _26
REMARK   13  A    between atoms: _29  and  _31
REMARK   14  A    between atoms: _31  and  _32
REMARK   15  A    between atoms: _31  and  _34
REMARK   16  A    between atoms: _34  and  _35
REMARK   17  A    between atoms: _41  and  _43
REMARK   18  A    between atoms: _43  and  _44
REMARK   19  A    between atoms: _43  and  _46
REMARK   20  A    between atoms: _46  and  _47
REMARK   21  A    between atoms: _50  and  _52
REMARK   22  A    between atoms: _52  and  _53
REMARK   23  A    between atoms: _52  and  _55
REMARK   24  A    between atoms: _55  and  _56
REMARK   25  A    between atoms: _58  and  _60
REMARK   26  A    between atoms: _60  and  _61
REMARK   27  A    between atoms: _60  and  _63
REMARK   28  A    between atoms: _63  and  _64
REMARK   29  A    between atoms: _69  and  _71
REMARK   30  A    between atoms: _71  and  _72
REMARK   31  A    between atoms: _71  and  _74
REMARK   32  A    between atoms: _74  and  _75
REMARK   33  A    between atoms: _80  and  _82
REMARK   34  A    between atoms: _82  and  _83
REMARK   35  A    between atoms: _82  and  _85
REMARK   36  A    between atoms: _85  and  _86
REMARK   37  A    between atoms: _89  and  _91
REMARK   38  A    between atoms: _91  and  _92
REMARK   39  A    between atoms: _94  and  _96
REMARK   40  A    between atoms: _96  and  _97
REMARK   41  A    between atoms: _96  and  _99
REMARK   42  A    between atoms: _99  and  _100
REMARK   43  A    between atoms: _106  and  _108
REMARK   44  A    between atoms: _108  and  _109
REMARK   45  A    between atoms: _108  and  _111
REMARK   46  A    between atoms: _111  and  _112
REMARK   47  A    between atoms: _117  and  _118
REMARK   48  A    between atoms: _120  and  _122
REMARK   49  A    between atoms: _122  and  _123
REMARK   50  A    between atoms: _126  and  _128
REMARK   51  A    between atoms: _128  and  _129
REMARK   52  A    between atoms: _132  and  _134
REMARK   53  A    between atoms: _134  and  _135
REMARK   54  A    between atoms: _134  and  _137
REMARK   55  A    between atoms: _137  and  _138
REMARK   56  A    between atoms: _141  and  _143
REMARK   57  A    between atoms: _143  and  _144
REMARK   58  A    between atoms: _143  and  _146
REMARK   59  A    between atoms: _146  and  _147
REMARK   60  A    between atoms: _152  and  _154
REMARK   61  A    between atoms: _154  and  _155
REMARK   62  A    between atoms: _154  and  _157
REMARK   63  A    between atoms: _157  and  _158
REMARK   64  A    between atoms: _158  and  _159
REMARK   65  A    between atoms: _162  and  _164
REMARK   66  A    between atoms: _164  and  _165
REMARK   67  A    between atoms: _164  and  _167
REMARK   68  A    between atoms: _167  and  _168
REMARK   69  A    between atoms: _170  and  _172
REMARK   70  A    between atoms: _172  and  _173
REMARK   71  A    between atoms: _172  and  _175
REMARK   72  A    between atoms: _175  and  _176
REMARK   73  A    between atoms: _179  and  _181
REMARK   74  A    between atoms: _181  and  _182
REMARK   75  A    between atoms: _181  and  _184
REMARK   76  A    between atoms: _184  and  _185
REMARK   77  A    between atoms: _185  and  _186
REMARK   78  A    between atoms: _186  and  _187
REMARK   79  A    between atoms: _187  and  _188
REMARK   80  A    between atoms: _192  and  _194
REMARK   81  A    between atoms: _194  and  _195
REMARK   82  A    between atoms: _194  and  _197
REMARK   83  A    between atoms: _199  and  _201
REMARK   84  A    between atoms: _201  and  _202
REMARK   85  A    between atoms: _201  and  _204
REMARK   86  A    between atoms: _204  and  _205
REMARK   87  A    between atoms: _207  and  _209
REMARK   88  A    between atoms: _209  and  _210
REMARK   89  A    between atoms: _209  and  _212
REMARK   90  A    between atoms: _212  and  _213
REMARK   91  A    between atoms: _217  and  _218
REMARK   92  A    between atoms: _223  and  _225
REMARK   93  A    between atoms: _225  and  _226
REMARK   94  A    between atoms: _225  and  _228
REMARK   95  A    between atoms: _228  and  _229
REMARK   96  A    between atoms: _231  and  _233
REMARK   97  A    between atoms: _233  and  _234
REMARK   98  A    between atoms: _236  and  _238
REMARK   99  A    between atoms: _238  and  _239
REMARK  100  A    between atoms: _238  and  _241
REMARK  101  A    between atoms: _241  and  _242
REMARK  102  A    between atoms: _245  and  _247
REMARK  103  A    between atoms: _247  and  _248
REMARK  104  A    between atoms: _247  and  _250
REMARK  105  A    between atoms: _250  and  _251
REMARK  106  A    between atoms: _254  and  _256
REMARK  107  A    between atoms: _256  and  _257
REMARK  108  A    between atoms: _260  and  _262
REMARK  109  A    between atoms: _262  and  _263
REMARK  110  A    between atoms: _262  and  _265
REMARK  111  A    between atoms: _265  and  _266
REMARK  112  A    between atoms: _271  and  _272
REMARK  113  A    between atoms: _274  and  _276
REMARK  114  A    between atoms: _276  and  _277
REMARK  115  A    between atoms: _276  and  _279
REMARK  116  A    between atoms: _279  and  _280
REMARK  117  A    between atoms: _285  and  _287
REMARK  118  A    between atoms: _287  and  _288
REMARK  119  A    between atoms: _287  and  _290
REMARK  120  A    between atoms: _290  and  _291
REMARK  121  A    between atoms: _291  and  _292
REMARK  122  A    between atoms: _292  and  _293
REMARK  123  A    between atoms: _293  and  _294
REMARK  124  A    between atoms: _298  and  _300
REMARK  125  A    between atoms: _300  and  _301
REMARK  126  A    between atoms: _300  and  _303
REMARK  127  A    between atoms: _303  and  _304
REMARK  128  A    between atoms: _306  and  _308
REMARK  129  A    between atoms: _308  and  _309
REMARK  130  A    between atoms: _308  and  _311
REMARK  131  A    between atoms: _311  and  _312
REMARK  132  A    between atoms: _315  and  _317
REMARK  133  A    between atoms: _317  and  _318
REMARK  134  A    between atoms: _317  and  _320
REMARK  135  A    between atoms: _320  and  _321
REMARK  136  A    between atoms: _324  and  _326
REMARK  137  A    between atoms: _326  and  _327
REMARK  138  A    between atoms: _326  and  _329
REMARK  139  A    between atoms: _329  and  _330
REMARK  140  A    between atoms: _332  and  _334
REMARK  141  A    between atoms: _334  and  _335
REMARK  142  A    between atoms: _334  and  _337
REMARK  143  A    between atoms: _340  and  _342
REMARK  144  A    between atoms: _342  and  _343
REMARK  145  A    between atoms: _342  and  _345
REMARK  146  A    between atoms: _345  and  _346
REMARK  147  A    between atoms: _349  and  _351
REMARK  148  A    between atoms: _351  and  _352
REMARK  149  A    between atoms: _351  and  _354
REMARK  150  A    between atoms: _354  and  _355
REMARK  151  A    between atoms: _360  and  _362
REMARK  152  A    between atoms: _362  and  _363
REMARK  153  A    between atoms: _362  and  _365
REMARK  154  A    between atoms: _365  and  _366
REMARK  155  A    between atoms: _369  and  _371
REMARK  156  A    between atoms: _371  and  _372
REMARK  157  A    between atoms: _371  and  _374
REMARK  158  A    between atoms: _374  and  _375
REMARK  159  A    between atoms: _381  and  _383
REMARK  160  A    between atoms: _383  and  _384
REMARK  161  A    between atoms: _383  and  _386
REMARK  162  A    between atoms: _386  and  _387
REMARK  163  A    between atoms: _387  and  _388
REMARK  164  A    between atoms: _388  and  _389
REMARK  165  A    between atoms: _398  and  _400
REMARK  166  A    between atoms: _400  and  _401
REMARK  167  A    between atoms: _400  and  _403
REMARK  168  A    between atoms: _406  and  _408
REMARK  169  A    between atoms: _408  and  _409
REMARK  170  A    between atoms: _408  and  _411
REMARK  171  A    between atoms: _411  and  _412
REMARK  172  A    between atoms: _414  and  _416
REMARK  173  A    between atoms: _416  and  _417
REMARK  174  A    between atoms: _416  and  _419
REMARK  175  A    between atoms: _419  and  _420
REMARK  176  A    between atoms: _426  and  _428
REMARK  177  A    between atoms: _428  and  _429
REMARK  178  A    between atoms: _432  and  _433
REMARK  179  A    between atoms: _438  and  _440
REMARK  180  A    between atoms: _440  and  _441
REMARK  181  A    between atoms: _440  and  _443
REMARK  182  A    between atoms: _443  and  _444
REMARK  183  A    between atoms: _450  and  _452
REMARK  184  A    between atoms: _452  and  _453
REMARK  185  A    between atoms: _452  and  _455
REMARK  186  A    between atoms: _455  and  _456
REMARK  187  A    between atoms: _462  and  _464
REMARK  188  A    between atoms: _464  and  _465
REMARK  189  A    between atoms: _464  and  _467
REMARK  190  A    between atoms: _467  and  _468
REMARK  191  A    between atoms: _468  and  _469
REMARK  192  A    between atoms: _469  and  _470
REMARK  193  A    between atoms: _479  and  _481
REMARK  194  A    between atoms: _481  and  _482
REMARK  195  A    between atoms: _484  and  _486
REMARK  196  A    between atoms: _486  and  _487
REMARK  197  A    between atoms: _486  and  _489
REMARK  198  A    between atoms: _489  and  _490
REMARK  199  A    between atoms: _493  and  _495
REMARK  200  A    between atoms: _495  and  _496
REMARK  201  A    between atoms: _498  and  _500
REMARK  202  A    between atoms: _500  and  _501
REMARK  203  A    between atoms: _500  and  _503
REMARK  204  A    between atoms: _503  and  _504
REMARK  205  A    between atoms: _504  and  _505
REMARK  206  A    between atoms: _507  and  _509
REMARK  207  A    between atoms: _509  and  _510
REMARK  208  A    between atoms: _513  and  _515
REMARK  209  A    between atoms: _515  and  _516
REMARK  210  A    between atoms: _515  and  _518
REMARK  211  A    between atoms: _518  and  _519
REMARK  212  A    between atoms: _521  and  _523
REMARK  213  A    between atoms: _523  and  _524
REMARK  214  A    between atoms: _523  and  _526
REMARK  215  A    between atoms: _526  and  _527
REMARK  216  A    between atoms: _530  and  _532
REMARK  217  A    between atoms: _532  and  _533
REMARK  218  A    between atoms: _532  and  _535
REMARK  219  A    between atoms: _535  and  _536
REMARK  220  A    between atoms: _541  and  _543
REMARK  221  A    between atoms: _543  and  _544
REMARK  222  A    between atoms: _543  and  _546
REMARK  223  A    between atoms: _546  and  _547
REMARK  224  A    between atoms: _552  and  _554
REMARK  225  A    between atoms: _554  and  _555
REMARK  226  A    between atoms: _554  and  _557
REMARK  227  A    between atoms: _560  and  _562
REMARK  228  A    between atoms: _562  and  _563
REMARK  229  A    between atoms: _562  and  _565
REMARK  230  A    between atoms: _565  and  _566
REMARK  231  A    between atoms: _571  and  _572
REMARK                            x       y       z     vdW  Elec       q    Type
REMARK                         _______ _______ _______ _____ _____    ______ ____
ROOT
ATOM      1  C   THR A   4      11.603  16.460  17.416  0.00  0.00    +0.243 C 
ATOM      2  N   PHE A   5      12.919  16.591  17.266  0.00  0.00    -0.297 N 
ATOM      3  H   PHE A   5      13.546  15.809  17.542  0.00  0.00    +0.150 HD
ATOM      4  O   THR A   4      10.803  17.337  17.095  0.00  0.00    -0.273 OA
ENDROOT
BRANCH   2   5
ATOM      5  CA  PHE A   5      13.493  17.812  16.722  0.00  0.00    +0.153 C 
BRANCH   5   6
ATOM      6  C   PHE A   5      13.057  18.025  15.273  0.00  0.00    +0.241 C 
ATOM      7  O   PHE A   5      12.724  19.149  14.884  0.00  0.00    -0.273 OA
ATOM      8  N   LEU A   6      13.062  16.948  14.485  0.00  0.00    -0.297 N 
ATOM      9  H   LEU A   6      13.390  16.040  14.870  0.00  0.00    +0.150 HD
BRANCH   8  10
ATOM     10  CA  LEU A   6      12.617  17.013  13.091  0.00  0.00    +0.149 C 
BRANCH  10  11
ATOM     11  C   LEU A   6      11.156  17.478  12.980  0.00  0.00    +0.241 C 
ATOM     12  N   SER A   7      10.295  16.974  13.865  0.00  0.00    -0.296 N 
ATOM     13  H   SER A   7      10.631  16.269  14.552  0.00  0.00    +0.150 HD
ATOM     14  O   LEU A   6      10.828  18.290  12.116  0.00  0.00    -0.273 OA
BRANCH  12  15
ATOM     15  CA  SER A   7       8.885  17.386  13.897  0.00  0.00    +0.166 C 
BRANCH  15  16
ATOM     16  CB  SER A   7       8.706  18.856  14.261  0.00  0.00    +0.229 C 
ATOM     17  OG  SER A   7       7.851  19.538  13.686  0.00  0.00    -0.286 OA
ENDBRANCH  15  16
BRANCH  15  18
ATOM     18  C   SER A   7       8.075  16.505  14.856  0.00  0.00    +0.165 C 
BRANCH  18  19
ATOM     19  O   SER A   7       7.922  15.209  14.311  0.00  0.00    -0.380 OA
ATOM     20  H   SER A   7       8.814  14.804  14.171  0.00  0.00    +0.211 HD
ENDBRANCH  18  19
ENDBRANCH  15  18
ENDBRANCH  12  15
ENDBRANCH  10  11
BRANCH  10  21
ATOM     21  CB  LEU A   6      12.839  15.679  12.371  0.00  0.00    +0.029 C 
BRANCH  21  22
ATOM     22  CG  LEU A   6      14.282  15.310  11.981  0.00  0.00    +0.002 C 
ATOM     23  CD2 LEU A   6      14.357  13.871  11.489  0.00  0.00    +0.000 C 
ATOM     24  CD1 LEU A   6      14.850  16.259  10.932  0.00  0.00    +0.000 C 
ENDBRANCH  21  22
ENDBRANCH  10  21
ENDBRANCH   8  10
ENDBRANCH   5   6
BRANCH   5  25
ATOM     25  CB  PHE A   5      15.023  17.816  16.815  0.00  0.00    +0.055 C 
BRANCH  25  26
ATOM     26  CG  PHE A   5      15.636  19.148  16.468  0.00  0.00    -0.020 A 
ATOM     27  CD2 PHE A   5      15.944  20.069  17.473  0.00  0.00    -0.004 A 
ATOM     28  CE2 PHE A   5      16.507  21.311  17.154  0.00  0.00    -0.000 A 
ATOM     29  CZ  PHE A   5      16.756  21.637  15.817  0.00  0.00    -0.000 A 
ATOM     30  CE1 PHE A   5      16.447  20.726  14.806  0.00  0.00    -0.000 A 
ATOM     31  CD1 PHE A   5      15.891  19.493  15.132  0.00  0.00    -0.004 A 
ENDBRANCH  25  26
ENDBRANCH   5  25
ENDBRANCH   2   5
BRANCH   1  32
ATOM     32  CA  THR A   4      11.107  15.138  17.995  0.00  0.00    +0.176 C 
BRANCH  32  34
ATOM     33  C   GLY A   3      11.798  13.785  16.072  0.00  0.00    +0.243 C 
ATOM     34  N   THR A   4      11.808  14.009  17.389  0.00  0.00    -0.295 N 
ATOM     35  H   THR A   4      12.334  13.356  18.005  0.00  0.00    +0.150 HD
ATOM     36  O   GLY A   3      11.117  14.443  15.280  0.00  0.00    -0.273 OA
BRANCH  33  37
ATOM     37  CA  GLY A   3      12.693  12.661  15.575  0.00  0.00    +0.176 C 
BRANCH  37  39
ATOM     38  C   ASP A   2      14.840  13.814  15.927  0.00  0.00    +0.241 C 
ATOM     39  N   GLY A   3      14.058  12.748  16.112  0.00  0.00    -0.295 N 
ATOM     40  H   GLY A   3      14.430  11.946  16.659  0.00  0.00    +0.150 HD
ATOM     41  O   ASP A   2      14.527  14.770  15.216  0.00  0.00    -0.273 OA
BRANCH  38  42
ATOM     42  CA  ASP A   2      16.181  13.815  16.663  0.00  0.00    +0.160 C 
BRANCH  42  45
ATOM     43  C   GLY A   1      15.373  13.567  18.941  0.00  0.00    +0.240 C 
ATOM     44  O   GLY A   1      14.714  14.601  18.867  0.00  0.00    -0.274 OA
ATOM     45  N   ASP A   2      16.121  13.112  17.940  0.00  0.00    -0.297 N 
ATOM     46  H   ASP A   2      16.673  12.240  18.070  0.00  0.00    +0.150 HD
BRANCH  43  47
ATOM     47  CA  GLY A   1      15.352  12.729  20.202  0.00  0.00    +0.169 C 
BRANCH  47  48
ATOM     48  N   GLY A   1      14.228  13.103  21.056  0.00  0.00    -0.236 NA
ATOM     49  H   GLY A   1      13.260  12.891  20.740  0.00  0.00    +0.142 HD
ENDBRANCH  47  48
ENDBRANCH  43  47
ENDBRANCH  42  45
BRANCH  42  50
ATOM     50  CB  ASP A   2      17.303  13.265  15.782  0.00  0.00    +0.143 C 
BRANCH  50  51
ATOM     51  CG  ASP A   2      18.684  13.616  16.311  0.00  0.00    +0.367 C 
ATOM     52  OD2 ASP A   2      18.854  14.716  16.884  0.00  0.00    -0.246 OA
ATOM     53  OD1 ASP A   2      19.659  12.849  16.201  0.00  0.00    -0.246 OA
ENDBRANCH  50  51
ENDBRANCH  42  50
ENDBRANCH  38  42
ENDBRANCH  37  39
ENDBRANCH  33  37
ENDBRANCH  32  34
BRANCH  32  54
ATOM     54  CB  THR A   4      11.276  15.116  19.529  0.00  0.00    +0.137 C 
ATOM     55  CG2 THR A   4      10.268  16.043  20.210  0.00  0.00    +0.034 C 
BRANCH  54  56
ATOM     56  OG1 THR A   4      10.918  13.820  20.019  0.00  0.00    -0.382 OA
ATOM     57  HG1 THR A   4      11.507  13.139  19.608  0.00  0.00    +0.210 HD
ENDBRANCH  54  56
ENDBRANCH  32  54
ENDBRANCH   1  32
TORSDOF 24
REMARK  Name = ../refined-set-2016/2i2c/2i2c_pocket.pdb
REMARK  231 active torsions:
REMARK  status: ('A' for Active; 'I' for Inactive)
REMARK    1  A    between atoms: _1  and  _3
REMARK    2  A    between atoms: _3  and  _4
REMARK    3  A    between atoms: _6  and  _8
REMARK    4  A    between atoms: _8  and  _9
REMARK    5  A    between atoms: _8  and  _11
REMARK    6  A    between atoms: _11  and  _12
REMARK    7  A    between atoms: _15  and  _17
REMARK    8  A    between atoms: _17  and  _18
REMARK    9  A    between atoms: _20  and  _22
REMARK   10  A    between atoms: _22  and  _23
REMARK   11  A    between atoms: _22  and  _25
REMARK   12  A    between atoms: _25  and  _26
REMARK   13  A    between atoms: _29  and  _31
REMARK   14  A    between atoms: _31  and  _32
REMARK   15  A    between atoms: _31  and  _34
REMARK   16  A    between atoms: _34  and  _35
REMARK   17  A    between atoms: _41  and  _43
REMARK   18  A    between atoms: _43  and  _44
REMARK   19  A    between atoms: _43  and  _46
REMARK   20  A    between atoms: _46  and  _47
REMARK   21  A    between atoms: _50  and  _52
REMARK   22  A    between atoms: _52  and  _53
REMARK   23  A    between atoms: _52  and  _55
REMARK   24  A    between atoms: _55  and  _56
REMARK   25  A    between atoms: _58  and  _60
REMARK   26  A    between atoms: _60  and  _61
REMARK   27  A    between atoms: _60  and  _63
REMARK   28  A    between atoms: _63  and  _64
REMARK   29  A    between atoms: _69  and  _71
REMARK   30  A    between atoms: _71  and  _72
REMARK   31  A    between atoms: _71  and  _74
REMARK   32  A    between atoms: _74  and  _75
REMARK   33  A    between atoms: _80  and  _82
REMARK   34  A    between atoms: _82  and  _83
REMARK   35  A    between atoms: _82  and  _85
REMARK   36  A    between atoms: _85  and  _86
REMARK   37  A    between atoms: _89  and  _91
REMARK   38  A    between atoms: _91  and  _92
REMARK   39  A    between atoms: _94  and  _96
REMARK   40  A    between atoms: _96  and  _97
REMARK   41  A    between atoms: _96  and  _99
REMARK   42  A    between atoms: _99  and  _100
REMARK   43  A    between atoms: _106  and  _108
REMARK   44  A    between atoms: _108  and  _109
REMARK   45  A    between atoms: _108  and  _111
REMARK   46  A    between atoms: _111  and  _112
REMARK   47  A    between atoms: _117  and  _118
REMARK   48  A    between atoms: _120  and  _122
REMARK   49  A    between atoms: _122  and  _123
REMARK   50  A    between atoms: _126  and  _128
REMARK   51  A    between atoms: _128  and  _129
REMARK   52  A    between atoms: _132  and  _134
REMARK   53  A    between atoms: _134  and  _135
REMARK   54  A    between atoms: _134  and  _137
REMARK   55  A    between atoms: _137  and  _138
REMARK   56  A    between atoms: _141  and  _143
REMARK   57  A    between atoms: _143  and  _144
REMARK   58  A    between atoms: _143  and  _146
REMARK   59  A    between atoms: _146  and  _147
REMARK   60  A    between atoms: _152  and  _154
REMARK   61  A    between atoms: _154  and  _155
REMARK   62  A    between atoms: _154  and  _157
REMARK   63  A    between atoms: _157  and  _158
REMARK   64  A    between atoms: _158  and  _159
REMARK   65  A    between atoms: _162  and  _164
REMARK   66  A    between atoms: _164  and  _165
REMARK   67  A    between atoms: _164  and  _167
REMARK   68  A    between atoms: _167  and  _168
REMARK   69  A    between atoms: _170  and  _172
REMARK   70  A    between atoms: _172  and  _173
REMARK   71  A    between atoms: _172  and  _175
REMARK   72  A    between atoms: _175  and  _176
REMARK   73  A    between atoms: _179  and  _181
REMARK   74  A    between atoms: _181  and  _182
REMARK   75  A    between atoms: _181  and  _184
REMARK   76  A    between atoms: _184  and  _185
REMARK   77  A    between atoms: _185  and  _186
REMARK   78  A    between atoms: _186  and  _187
REMARK   79  A    between atoms: _187  and  _188
REMARK   80  A    between atoms: _192  and  _194
REMARK   81  A    between atoms: _194  and  _195
REMARK   82  A    between atoms: _194  and  _197
REMARK   83  A    between atoms: _199  and  _201
REMARK   84  A    between atoms: _201  and  _202
REMARK   85  A    between atoms: _201  and  _204
REMARK   86  A    between atoms: _204  and  _205
REMARK   87  A    between atoms: _207  and  _209
REMARK   88  A    between atoms: _209  and  _210
REMARK   89  A    between atoms: _209  and  _212
REMARK   90  A    between atoms: _212  and  _213
REMARK   91  A    between atoms: _217  and  _218
REMARK   92  A    between atoms: _223  and  _225
REMARK   93  A    between atoms: _225  and  _226
REMARK   94  A    between atoms: _225  and  _228
REMARK   95  A    between atoms: _228  and  _229
REMARK   96  A    between atoms: _231  and  _233
REMARK   97  A    between atoms: _233  and  _234
REMARK   98  A    between atoms: _236  and  _238
REMARK   99  A    between atoms: _238  and  _239
REMARK  100  A    between atoms: _238  and  _241
REMARK  101  A    between atoms: _241  and  _242
REMARK  102  A    between atoms: _245  and  _247
REMARK  103  A    between atoms: _247  and  _248
REMARK  104  A    between atoms: _247  and  _250
REMARK  105  A    between atoms: _250  and  _251
REMARK  106  A    between atoms: _254  and  _256
REMARK  107  A    between atoms: _256  and  _257
REMARK  108  A    between atoms: _260  and  _262
REMARK  109  A    between atoms: _262  and  _263
REMARK  110  A    between atoms: _262  and  _265
REMARK  111  A    between atoms: _265  and  _266
REMARK  112  A    between atoms: _271  and  _272
REMARK  113  A    between atoms: _274  and  _276
REMARK  114  A    between atoms: _276  and  _277
REMARK  115  A    between atoms: _276  and  _279
REMARK  116  A    between atoms: _279  and  _280
REMARK  117  A    between atoms: _285  and  _287
REMARK  118  A    between atoms: _287  and  _288
REMARK  119  A    between atoms: _287  and  _290
REMARK  120  A    between atoms: _290  and  _291
REMARK  121  A    between atoms: _291  and  _292
REMARK  122  A    between atoms: _292  and  _293
REMARK  123  A    between atoms: _293  and  _294
REMARK  124  A    between atoms: _298  and  _300
REMARK  125  A    between atoms: _300  and  _301
REMARK  126  A    between atoms: _300  and  _303
REMARK  127  A    between atoms: _303  and  _304
REMARK  128  A    between atoms: _306  and  _308
REMARK  129  A    between atoms: _308  and  _309
REMARK  130  A    between atoms: _308  and  _311
REMARK  131  A    between atoms: _311  and  _312
REMARK  132  A    between atoms: _315  and  _317
REMARK  133  A    between atoms: _317  and  _318
REMARK  134  A    between atoms: _317  and  _320
REMARK  135  A    between atoms: _320  and  _321
REMARK  136  A    between atoms: _324  and  _326
REMARK  137  A    between atoms: _326  and  _327
REMARK  138  A    between atoms: _326  and  _329
REMARK  139  A    between atoms: _329  and  _330
REMARK  140  A    between atoms: _332  and  _334
REMARK  141  A    between atoms: _334  and  _335
REMARK  142  A    between atoms: _334  and  _337
REMARK  143  A    between atoms: _340  and  _342
REMARK  144  A    between atoms: _342  and  _343
REMARK  145  A    between atoms: _342  and  _345
REMARK  146  A    between atoms: _345  and  _346
REMARK  147  A    between atoms: _349  and  _351
REMARK  148  A    between atoms: _351  and  _352
REMARK  149  A    between atoms: _351  and  _354
REMARK  150  A    between atoms: _354  and  _355
REMARK  151  A    between atoms: _360  and  _362
REMARK  152  A    between atoms: _362  and  _363
REMARK  153  A    between atoms: _362  and  _365
REMARK  154  A    between atoms: _365  and  _366
REMARK  155  A    between atoms: _369  and  _371
REMARK  156  A    between atoms: _371  and  _372
REMARK  157  A    between atoms: _371  and  _374
REMARK  158  A    between atoms: _374  and  _375
REMARK  159  A    between atoms: _381  and  _383
REMARK  160  A    between atoms: _383  and  _384
REMARK  161  A    between atoms: _383  and  _386
REMARK  162  A    between atoms: _386  and  _387
REMARK  163  A    between atoms: _387  and  _388
REMARK  164  A    between atoms: _388  and  _389
REMARK  165  A    between atoms: _398  and  _400
REMARK  166  A    between atoms: _400  and  _401
REMARK  167  A    between atoms: _400  and  _403
REMARK  168  A    between atoms: _406  and  _408
REMARK  169  A    between atoms: _408  and  _409
REMARK  170  A    between atoms: _408  and  _411
REMARK  171  A    between atoms: _411  and  _412
REMARK  172  A    between atoms: _414  and  _416
REMARK  173  A    between atoms: _416  and  _417
REMARK  174  A    between atoms: _416  and  _419
REMARK  175  A    between atoms: _419  and  _420
REMARK  176  A    between atoms: _426  and  _428
REMARK  177  A    between atoms: _428  and  _429
REMARK  178  A    between atoms: _432  and  _433
REMARK  179  A    between atoms: _438  and  _440
REMARK  180  A    between atoms: _440  and  _441
REMARK  181  A    between atoms: _440  and  _443
REMARK  182  A    between atoms: _443  and  _444
REMARK  183  A    between atoms: _450  and  _452
REMARK  184  A    between atoms: _452  and  _453
REMARK  185  A    between atoms: _452  and  _455
REMARK  186  A    between atoms: _455  and  _456
REMARK  187  A    between atoms: _462  and  _464
REMARK  188  A    between atoms: _464  and  _465
REMARK  189  A    between atoms: _464  and  _467
REMARK  190  A    between atoms: _467  and  _468
REMARK  191  A    between atoms: _468  and  _469
REMARK  192  A    between atoms: _469  and  _470
REMARK  193  A    between atoms: _479  and  _481
REMARK  194  A    between atoms: _481  and  _482
REMARK  195  A    between atoms: _484  and  _486
REMARK  196  A    between atoms: _486  and  _487
REMARK  197  A    between atoms: _486  and  _489
REMARK  198  A    between atoms: _489  and  _490
REMARK  199  A    between atoms: _493  and  _495
REMARK  200  A    between atoms: _495  and  _496
REMARK  201  A    between atoms: _498  and  _500
REMARK  202  A    between atoms: _500  and  _501
REMARK  203  A    between atoms: _500  and  _503
REMARK  204  A    between atoms: _503  and  _504
REMARK  205  A    between atoms: _504  and  _505
REMARK  206  A    between atoms: _507  and  _509
REMARK  207  A    between atoms: _509  and  _510
REMARK  208  A    between atoms: _513  and  _515
REMARK  209  A    between atoms: _515  and  _516
REMARK  210  A    between atoms: _515  and  _518
REMARK  211  A    between atoms: _518  and  _519
REMARK  212  A    between atoms: _521  and  _523
REMARK  213  A    between atoms: _523  and  _524
REMARK  214  A    between atoms: _523  and  _526
REMARK  215  A    between atoms: _526  and  _527
REMARK  216  A    between atoms: _530  and  _532
REMARK  217  A    between atoms: _532  and  _533
REMARK  218  A    between atoms: _532  and  _535
REMARK  219  A    between atoms: _535  and  _536
REMARK  220  A    between atoms: _541  and  _543
REMARK  221  A    between atoms: _543  and  _544
REMARK  222  A    between atoms: _543  and  _546
REMARK  223  A    between atoms: _546  and  _547
REMARK  224  A    between atoms: _552  and  _554
REMARK  225  A    between atoms: _554  and  _555
REMARK  226  A    between atoms: _554  and  _557
REMARK  227  A    between atoms: _560  and  _562
REMARK  228  A    between atoms: _562  and  _563
REMARK  229  A    between atoms: _562  and  _565
REMARK  230  A    between atoms: _565  and  _566
REMARK  231  A    between atoms: _571  and  _572
REMARK                            x       y       z     vdW  Elec       q    Type
REMARK                         _______ _______ _______ _____ _____    ______ ____
ROOT
ATOM      1  CB  HIS A   1       8.295  19.472   9.690  0.00  0.00    +0.072 C 
ENDROOT
BRANCH   1   2
ATOM      2  CG  HIS A   1       9.375  18.993   8.772  0.00  0.00    +0.082 A 
ATOM      3  CD2 HIS A   1      10.457  18.211   8.997  0.00  0.00    +0.115 A 
ATOM      4  NE2 HIS A   1      11.144  18.119   7.812  0.00  0.00    -0.221 NA
ATOM      5  CE1 HIS A   1      10.513  18.829   6.894  0.00  0.00    +0.199 A 
ATOM      6  ND1 HIS A   1       9.447  19.376   7.452  0.00  0.00    -0.227 NA
ENDBRANCH   1   2
BRANCH   1   7
ATOM      7  CA  HIS A   1       8.528  20.897  10.187  0.00  0.00    +0.139 C 
BRANCH   7   8
ATOM      8  N   HIS A   1       9.586  20.941  11.190  0.00  0.00    -0.239 NA
ATOM      9  H   HIS A   1       9.843  20.071  11.698  0.00  0.00    +0.142 HD
ENDBRANCH   7   8
BRANCH   7  10
ATOM     10  C   HIS A   1       7.237  21.572  10.655  0.00  0.00    +0.224 C 
ATOM     11  O   HIS A   1       6.460  22.047   9.833  0.00  0.00    -0.287 OA
ENDBRANCH   7  10
ENDBRANCH   1   7
TORSDOF 4
REMARK  Name = ../refined-set-2016/2i2c/2i2c_pocket.pdb
REMARK  231 active torsions:
REMARK  status: ('A' for Active; 'I' for Inactive)
REMARK    1  A    between atoms: _1  and  _3
REMARK    2  A    between atoms: _3  and  _4
REMARK    3  A    between atoms: _6  and  _8
REMARK    4  A    between atoms: _8  and  _9
REMARK    5  A    between atoms: _8  and  _11
REMARK    6  A    between atoms: _11  and  _12
REMARK    7  A    between atoms: _15  and  _17
REMARK    8  A    between atoms: _17  and  _18
REMARK    9  A    between atoms: _20  and  _22
REMARK   10  A    between atoms: _22  and  _23
REMARK   11  A    between atoms: _22  and  _25
REMARK   12  A    between atoms: _25  and  _26
REMARK   13  A    between atoms: _29  and  _31
REMARK   14  A    between atoms: _31  and  _32
REMARK   15  A    between atoms: _31  and  _34
REMARK   16  A    between atoms: _34  and  _35
REMARK   17  A    between atoms: _41  and  _43
REMARK   18  A    between atoms: _43  and  _44
REMARK   19  A    between atoms: _43  and  _46
REMARK   20  A    between atoms: _46  and  _47
REMARK   21  A    between atoms: _50  and  _52
REMARK   22  A    between atoms: _52  and  _53
REMARK   23  A    between atoms: _52  and  _55
REMARK   24  A    between atoms: _55  and  _56
REMARK   25  A    between atoms: _58  and  _60
REMARK   26  A    between atoms: _60  and  _61
REMARK   27  A    between atoms: _60  and  _63
REMARK   28  A    between atoms: _63  and  _64
REMARK   29  A    between atoms: _69  and  _71
REMARK   30  A    between atoms: _71  and  _72
REMARK   31  A    between atoms: _71  and  _74
REMARK   32  A    between atoms: _74  and  _75
REMARK   33  A    between atoms: _80  and  _82
REMARK   34  A    between atoms: _82  and  _83
REMARK   35  A    between atoms: _82  and  _85
REMARK   36  A    between atoms: _85  and  _86
REMARK   37  A    between atoms: _89  and  _91
REMARK   38  A    between atoms: _91  and  _92
REMARK   39  A    between atoms: _94  and  _96
REMARK   40  A    between atoms: _96  and  _97
REMARK   41  A    between atoms: _96  and  _99
REMARK   42  A    between atoms: _99  and  _100
REMARK   43  A    between atoms: _106  and  _108
REMARK   44  A    between atoms: _108  and  _109
REMARK   45  A    between atoms: _108  and  _111
REMARK   46  A    between atoms: _111  and  _112
REMARK   47  A    between atoms: _117  and  _118
REMARK   48  A    between atoms: _120  and  _122
REMARK   49  A    between atoms: _122  and  _123
REMARK   50  A    between atoms: _126  and  _128
REMARK   51  A    between atoms: _128  and  _129
REMARK   52  A    between atoms: _132  and  _134
REMARK   53  A    between atoms: _134  and  _135
REMARK   54  A    between atoms: _134  and  _137
REMARK   55  A    between atoms: _137  and  _138
REMARK   56  A    between atoms: _141  and  _143
REMARK   57  A    between atoms: _143  and  _144
REMARK   58  A    between atoms: _143  and  _146
REMARK   59  A    between atoms: _146  and  _147
REMARK   60  A    between atoms: _152  and  _154
REMARK   61  A    between atoms: _154  and  _155
REMARK   62  A    between atoms: _154  and  _157
REMARK   63  A    between atoms: _157  and  _158
REMARK   64  A    between atoms: _158  and  _159
REMARK   65  A    between atoms: _162  and  _164
REMARK   66  A    between atoms: _164  and  _165
REMARK   67  A    between atoms: _164  and  _167
REMARK   68  A    between atoms: _167  and  _168
REMARK   69  A    between atoms: _170  and  _172
REMARK   70  A    between atoms: _172  and  _173
REMARK   71  A    between atoms: _172  and  _175
REMARK   72  A    between atoms: _175  and  _176
REMARK   73  A    between atoms: _179  and  _181
REMARK   74  A    between atoms: _181  and  _182
REMARK   75  A    between atoms: _181  and  _184
REMARK   76  A    between atoms: _184  and  _185
REMARK   77  A    between atoms: _185  and  _186
REMARK   78  A    between atoms: _186  and  _187
REMARK   79  A    between atoms: _187  and  _188
REMARK   80  A    between atoms: _192  and  _194
REMARK   81  A    between atoms: _194  and  _195
REMARK   82  A    between atoms: _194  and  _197
REMARK   83  A    between atoms: _199  and  _201
REMARK   84  A    between atoms: _201  and  _202
REMARK   85  A    between atoms: _201  and  _204
REMARK   86  A    between atoms: _204  and  _205
REMARK   87  A    between atoms: _207  and  _209
REMARK   88  A    between atoms: _209  and  _210
REMARK   89  A    between atoms: _209  and  _212
REMARK   90  A    between atoms: _212  and  _213
REMARK   91  A    between atoms: _217  and  _218
REMARK   92  A    between atoms: _223  and  _225
REMARK   93  A    between atoms: _225  and  _226
REMARK   94  A    between atoms: _225  and  _228
REMARK   95  A    between atoms: _228  and  _229
REMARK   96  A    between atoms: _231  and  _233
REMARK   97  A    between atoms: _233  and  _234
REMARK   98  A    between atoms: _236  and  _238
REMARK   99  A    between atoms: _238  and  _239
REMARK  100  A    between atoms: _238  and  _241
REMARK  101  A    between atoms: _241  and  _242
REMARK  102  A    between atoms: _245  and  _247
REMARK  103  A    between atoms: _247  and  _248
REMARK  104  A    between atoms: _247  and  _250
REMARK  105  A    between atoms: _250  and  _251
REMARK  106  A    between atoms: _254  and  _256
REMARK  107  A    between atoms: _256  and  _257
REMARK  108  A    between atoms: _260  and  _262
REMARK  109  A    between atoms: _262  and  _263
REMARK  110  A    between atoms: _262  and  _265
REMARK  111  A    between atoms: _265  and  _266
REMARK  112  A    between atoms: _271  and  _272
REMARK  113  A    between atoms: _274  and  _276
REMARK  114  A    between atoms: _276  and  _277
REMARK  115  A    between atoms: _276  and  _279
REMARK  116  A    between atoms: _279  and  _280
REMARK  117  A    between atoms: _285  and  _287
REMARK  118  A    between atoms: _287  and  _288
REMARK  119  A    between atoms: _287  and  _290
REMARK  120  A    between atoms: _290  and  _291
REMARK  121  A    between atoms: _291  and  _292
REMARK  122  A    between atoms: _292  and  _293
REMARK  123  A    between atoms: _293  and  _294
REMARK  124  A    between atoms: _298  and  _300
REMARK  125  A    between atoms: _300  and  _301
REMARK  126  A    between atoms: _300  and  _303
REMARK  127  A    between atoms: _303  and  _304
REMARK  128  A    between atoms: _306  and  _308
REMARK  129  A    between atoms: _308  and  _309
REMARK  130  A    between atoms: _308  and  _311
REMARK  131  A    between atoms: _311  and  _312
REMARK  132  A    between atoms: _315  and  _317
REMARK  133  A    between atoms: _317  and  _318
REMARK  134  A    between atoms: _317  and  _320
REMARK  135  A    between atoms: _320  and  _321
REMARK  136  A    between atoms: _324  and  _326
REMARK  137  A    between atoms: _326  and  _327
REMARK  138  A    between atoms: _326  and  _329
REMARK  139  A    between atoms: _329  and  _330
REMARK  140  A    between atoms: _332  and  _334
REMARK  141  A    between atoms: _334  and  _335
REMARK  142  A    between atoms: _334  and  _337
REMARK  143  A    between atoms: _340  and  _342
REMARK  144  A    between atoms: _342  and  _343
REMARK  145  A    between atoms: _342  and  _345
REMARK  146  A    between atoms: _345  and  _346
REMARK  147  A    between atoms: _349  and  _351
REMARK  148  A    between atoms: _351  and  _352
REMARK  149  A    between atoms: _351  and  _354
REMARK  150  A    between atoms: _354  and  _355
REMARK  151  A    between atoms: _360  and  _362
REMARK  152  A    between atoms: _362  and  _363
REMARK  153  A    between atoms: _362  and  _365
REMARK  154  A    between atoms: _365  and  _366
REMARK  155  A    between atoms: _369  and  _371
REMARK  156  A    between atoms: _371  and  _372
REMARK  157  A    between atoms: _371  and  _374
REMARK  158  A    between atoms: _374  and  _375
REMARK  159  A    between atoms: _381  and  _383
REMARK  160  A    between atoms: _383  and  _384
REMARK  161  A    between atoms: _383  and  _386
REMARK  162  A    between atoms: _386  and  _387
REMARK  163  A    between atoms: _387  and  _388
REMARK  164  A    between atoms: _388  and  _389
REMARK  165  A    between atoms: _398  and  _400
REMARK  166  A    between atoms: _400  and  _401
REMARK  167  A    between atoms: _400  and  _403
REMARK  168  A    between atoms: _406  and  _408
REMARK  169  A    between atoms: _408  and  _409
REMARK  170  A    between atoms: _408  and  _411
REMARK  171  A    between atoms: _411  and  _412
REMARK  172  A    between atoms: _414  and  _416
REMARK  173  A    between atoms: _416  and  _417
REMARK  174  A    between atoms: _416  and  _419
REMARK  175  A    between atoms: _419  and  _420
REMARK  176  A    between atoms: _426  and  _428
REMARK  177  A    between atoms: _428  and  _429
REMARK  178  A    between atoms: _432  and  _433
REMARK  179  A    between atoms: _438  and  _440
REMARK  180  A    between atoms: _440  and  _441
REMARK  181  A    between atoms: _440  and  _443
REMARK  182  A    between atoms: _443  and  _444
REMARK  183  A    between atoms: _450  and  _452
REMARK  184  A    between atoms: _452  and  _453
REMARK  185  A    between atoms: _452  and  _455
REMARK  186  A    between atoms: _455  and  _456
REMARK  187  A    between atoms: _462  and  _464
REMARK  188  A    between atoms: _464  and  _465
REMARK  189  A    between atoms: _464  and  _467
REMARK  190  A    between atoms: _467  and  _468
REMARK  191  A    between atoms: _468  and  _469
REMARK  192  A    between atoms: _469  and  _470
REMARK  193  A    between atoms: _479  and  _481
REMARK  194  A    between atoms: _481  and  _482
REMARK  195  A    between atoms: _484  and  _486
REMARK  196  A    between atoms: _486  and  _487
REMARK  197  A    between atoms: _486  and  _489
REMARK  198  A    between atoms: _489  and  _490
REMARK  199  A    between atoms: _493  and  _495
REMARK  200  A    between atoms: _495  and  _496
REMARK  201  A    between atoms: _498  and  _500
REMARK  202  A    between atoms: _500  and  _501
REMARK  203  A    between atoms: _500  and  _503
REMARK  204  A    between atoms: _503  and  _504
REMARK  205  A    between atoms: _504  and  _505
REMARK  206  A    between atoms: _507  and  _509
REMARK  207  A    between atoms: _509  and  _510
REMARK  208  A    between atoms: _513  and  _515
REMARK  209  A    between atoms: _515  and  _516
REMARK  210  A    between atoms: _515  and  _518
REMARK  211  A    between atoms: _518  and  _519
REMARK  212  A    between atoms: _521  and  _523
REMARK  213  A    between atoms: _523  and  _524
REMARK  214  A    between atoms: _523  and  _526
REMARK  215  A    between atoms: _526  and  _527
REMARK  216  A    between atoms: _530  and  _532
REMARK  217  A    between atoms: _532  and  _533
REMARK  218  A    between atoms: _532  and  _535
REMARK  219  A    between atoms: _535  and  _536
REMARK  220  A    between atoms: _541  and  _543
REMARK  221  A    between atoms: _543  and  _544
REMARK  222  A    between atoms: _543  and  _546
REMARK  223  A    between atoms: _546  and  _547
REMARK  224  A    between atoms: _552  and  _554
REMARK  225  A    between atoms: _554  and  _555
REMARK  226  A    between atoms: _554  and  _557
REMARK  227  A    between atoms: _560  and  _562
REMARK  228  A    between atoms: _562  and  _563
REMARK  229  A    between atoms: _562  and  _565
REMARK  230  A    between atoms: _565  and  _566
REMARK  231  A    between atoms: _571  and  _572
REMARK                            x       y       z     vdW  Elec       q    Type
REMARK                         _______ _______ _______ _____ _____    ______ ____
ROOT
ATOM      1  CA  PHE A   4      22.715  15.337  16.626  0.00  0.00    +0.153 C 
ENDROOT
BRANCH   1   4
ATOM      2  C   GLY A   3      22.171  14.616  18.873  0.00  0.00    +0.243 C 
ATOM      3  O   GLY A   3      23.138  15.210  19.354  0.00  0.00    -0.273 OA
ATOM      4  N   PHE A   4      21.939  14.547  17.565  0.00  0.00    -0.297 N 
ATOM      5  H   PHE A   4      21.191  13.918  17.210  0.00  0.00    +0.150 HD
BRANCH   2   6
ATOM      6  CA  GLY A   3      21.201  13.881  19.770  0.00  0.00    +0.176 C 
BRANCH   6   8
ATOM      7  C   LEU A   2      20.894  11.476  20.071  0.00  0.00    +0.241 C 
ATOM      8  N   GLY A   3      21.693  12.538  20.029  0.00  0.00    -0.295 N 
ATOM      9  H   GLY A   3      22.712  12.402  20.188  0.00  0.00    +0.150 HD
ATOM     10  O   LEU A   2      19.664  11.542  19.956  0.00  0.00    -0.273 OA
BRANCH   7  11
ATOM     11  CA  LEU A   2      21.614  10.139  20.265  0.00  0.00    +0.149 C 
BRANCH  11  14
ATOM     12  C   HIS A   1      20.705   9.082  22.350  0.00  0.00    +0.239 C 
ATOM     13  O   HIS A   1      19.532   9.042  21.975  0.00  0.00    -0.274 OA
ATOM     14  N   LEU A   2      21.701   9.641  21.655  0.00  0.00    -0.297 N 
ATOM     15  H   LEU A   2      22.619   9.734  22.135  0.00  0.00    +0.150 HD
BRANCH  12  16
ATOM     16  CA  HIS A   1      21.168   8.398  23.658  0.00  0.00    +0.151 C 
BRANCH  16  17
ATOM     17  N   HIS A   1      20.505   8.503  24.996  0.00  0.00    -0.238 NA
ATOM     18  H   HIS A   1      20.983   7.973  25.753  0.00  0.00    +0.142 HD
ENDBRANCH  16  17
BRANCH  16  19
ATOM     19  CB  HIS A   1      21.705   6.979  23.378  0.00  0.00    +0.074 C 
BRANCH  19  20
ATOM     20  CG  HIS A   1      20.708   5.883  23.586  0.00  0.00    +0.082 A 
ATOM     21  ND1 HIS A   1      20.900   4.875  24.514  0.00  0.00    -0.227 NA
ATOM     22  CE1 HIS A   1      19.873   4.045  24.470  0.00  0.00    +0.199 A 
ATOM     23  NE2 HIS A   1      19.024   4.475  23.543  0.00  0.00    -0.221 NA
ATOM     24  CD2 HIS A   1      19.526   5.621  22.971  0.00  0.00    +0.115 A 
ENDBRANCH  19  20
ENDBRANCH  16  19
ENDBRANCH  12  16
ENDBRANCH  11  14
BRANCH  11  25
ATOM     25  CB  LEU A   2      21.106   9.061  19.283  0.00  0.00    +0.029 C 
BRANCH  25  26
ATOM     26  CG  LEU A   2      22.116   8.325  18.385  0.00  0.00    +0.002 C 
ATOM     27  CD2 LEU A   2      23.389   7.901  19.126  0.00  0.00    +0.000 C 
ATOM     28  CD1 LEU A   2      22.463   9.136  17.131  0.00  0.00    +0.000 C 
ENDBRANCH  25  26
ENDBRANCH  11  25
ENDBRANCH   7  11
ENDBRANCH   6   8
ENDBRANCH   2   6
ENDBRANCH   1   4
BRANCH   1  29
ATOM     29  C   PHE A   4      22.172  16.746  16.537  0.00  0.00    +0.241 C 
ATOM     30  N   TYR A   5      20.898  16.900  16.849  0.00  0.00    -0.297 N 
ATOM     31  H   TYR A   5      20.307  16.070  17.058  0.00  0.00    +0.150 HD
ATOM     32  O   PHE A   4      22.887  17.682  16.183  0.00  0.00    -0.273 OA
BRANCH  30  33
ATOM     33  CA  TYR A   5      20.331  18.221  16.899  0.00  0.00    +0.153 C 
BRANCH  33  34
ATOM     34  C   TYR A   5      20.114  18.709  18.354  0.00  0.00    +0.241 C 
ATOM     35  N   ALA A   6      20.504  17.875  19.329  0.00  0.00    -0.298 N 
ATOM     36  H   ALA A   6      20.636  16.875  19.076  0.00  0.00    +0.150 HD
ATOM     37  O   TYR A   5      19.600  19.809  18.568  0.00  0.00    -0.273 OA
BRANCH  35  38
ATOM     38  CA  ALA A   6      20.765  18.262  20.747  0.00  0.00    +0.137 C 
ATOM     39  CB  ALA A   6      20.313  17.166  21.633  0.00  0.00    +0.030 C 
BRANCH  38  40
ATOM     40  C   ALA A   6      22.301  18.420  20.805  0.00  0.00    +0.227 C 
ATOM     41  O   ALA A   6      23.015  17.434  20.652  0.00  0.00    -0.286 OA
ENDBRANCH  38  40
ENDBRANCH  35  38
ENDBRANCH  33  34
BRANCH  33  42
ATOM     42  CB  TYR A   5      19.087  18.294  16.008  0.00  0.00    +0.055 C 
BRANCH  42  43
ATOM     43  CG  TYR A   5      19.372  18.039  14.526  0.00  0.00    -0.020 A 
ATOM     44  CD2 TYR A   5      18.786  16.964  13.854  0.00  0.00    -0.001 A 
ATOM     45  CE2 TYR A   5      19.037  16.737  12.486  0.00  0.00    +0.036 A 
ATOM     46  CZ  TYR A   5      19.885  17.591  11.788  0.00  0.00    +0.134 A 
ATOM     47  CE1 TYR A   5      20.482  18.664  12.436  0.00  0.00    +0.036 A 
ATOM     48  CD1 TYR A   5      20.220  18.885  13.797  0.00  0.00    -0.001 A 
BRANCH  46  49
ATOM     49  OH  TYR A   5      20.139  17.372  10.451  0.00  0.00    -0.506 OA
ATOM     50  HH  TYR A   5      20.758  18.068  10.115  0.00  0.00    +0.292 HD
ENDBRANCH  46  49
ENDBRANCH  42  43
ENDBRANCH  33  42
ENDBRANCH  30  33
ENDBRANCH   1  29
BRANCH   1  51
ATOM     51  CB  PHE A   4      22.755  14.686  15.239  0.00  0.00    +0.055 C 
BRANCH  51  52
ATOM     52  CG  PHE A   4      24.079  14.089  14.907  0.00  0.00    -0.020 A 
ATOM     53  CD2 PHE A   4      24.301  12.730  15.062  0.00  0.00    -0.004 A 
ATOM     54  CE2 PHE A   4      25.532  12.183  14.760  0.00  0.00    -0.000 A 
ATOM     55  CZ  PHE A   4      26.573  13.005  14.315  0.00  0.00    -0.000 A 
ATOM     56  CE1 PHE A   4      26.360  14.367  14.163  0.00  0.00    -0.000 A 
ATOM     57  CD1 PHE A   4      25.120  14.895  14.455  0.00  0.00    -0.004 A 
ENDBRANCH  51  52
ENDBRANCH   1  51
TORSDOF 21
REMARK  Name = ../refined-set-2016/2i2c/2i2c_pocket.pdb
REMARK  231 active torsions:
REMARK  status: ('A' for Active; 'I' for Inactive)
REMARK    1  A    between atoms: _1  and  _3
REMARK    2  A    between atoms: _3  and  _4
REMARK    3  A    between atoms: _6  and  _8
REMARK    4  A    between atoms: _8  and  _9
REMARK    5  A    between atoms: _8  and  _11
REMARK    6  A    between atoms: _11  and  _12
REMARK    7  A    between atoms: _15  and  _17
REMARK    8  A    between atoms: _17  and  _18
REMARK    9  A    between atoms: _20  and  _22
REMARK   10  A    between atoms: _22  and  _23
REMARK   11  A    between atoms: _22  and  _25
REMARK   12  A    between atoms: _25  and  _26
REMARK   13  A    between atoms: _29  and  _31
REMARK   14  A    between atoms: _31  and  _32
REMARK   15  A    between atoms: _31  and  _34
REMARK   16  A    between atoms: _34  and  _35
REMARK   17  A    between atoms: _41  and  _43
REMARK   18  A    between atoms: _43  and  _44
REMARK   19  A    between atoms: _43  and  _46
REMARK   20  A    between atoms: _46  and  _47
REMARK   21  A    between atoms: _50  and  _52
REMARK   22  A    between atoms: _52  and  _53
REMARK   23  A    between atoms: _52  and  _55
REMARK   24  A    between atoms: _55  and  _56
REMARK   25  A    between atoms: _58  and  _60
REMARK   26  A    between atoms: _60  and  _61
REMARK   27  A    between atoms: _60  and  _63
REMARK   28  A    between atoms: _63  and  _64
REMARK   29  A    between atoms: _69  and  _71
REMARK   30  A    between atoms: _71  and  _72
REMARK   31  A    between atoms: _71  and  _74
REMARK   32  A    between atoms: _74  and  _75
REMARK   33  A    between atoms: _80  and  _82
REMARK   34  A    between atoms: _82  and  _83
REMARK   35  A    between atoms: _82  and  _85
REMARK   36  A    between atoms: _85  and  _86
REMARK   37  A    between atoms: _89  and  _91
REMARK   38  A    between atoms: _91  and  _92
REMARK   39  A    between atoms: _94  and  _96
REMARK   40  A    between atoms: _96  and  _97
REMARK   41  A    between atoms: _96  and  _99
REMARK   42  A    between atoms: _99  and  _100
REMARK   43  A    between atoms: _106  and  _108
REMARK   44  A    between atoms: _108  and  _109
REMARK   45  A    between atoms: _108  and  _111
REMARK   46  A    between atoms: _111  and  _112
REMARK   47  A    between atoms: _117  and  _118
REMARK   48  A    between atoms: _120  and  _122
REMARK   49  A    between atoms: _122  and  _123
REMARK   50  A    between atoms: _126  and  _128
REMARK   51  A    between atoms: _128  and  _129
REMARK   52  A    between atoms: _132  and  _134
REMARK   53  A    between atoms: _134  and  _135
REMARK   54  A    between atoms: _134  and  _137
REMARK   55  A    between atoms: _137  and  _138
REMARK   56  A    between atoms: _141  and  _143
REMARK   57  A    between atoms: _143  and  _144
REMARK   58  A    between atoms: _143  and  _146
REMARK   59  A    between atoms: _146  and  _147
REMARK   60  A    between atoms: _152  and  _154
REMARK   61  A    between atoms: _154  and  _155
REMARK   62  A    between atoms: _154  and  _157
REMARK   63  A    between atoms: _157  and  _158
REMARK   64  A    between atoms: _158  and  _159
REMARK   65  A    between atoms: _162  and  _164
REMARK   66  A    between atoms: _164  and  _165
REMARK   67  A    between atoms: _164  and  _167
REMARK   68  A    between atoms: _167  and  _168
REMARK   69  A    between atoms: _170  and  _172
REMARK   70  A    between atoms: _172  and  _173
REMARK   71  A    between atoms: _172  and  _175
REMARK   72  A    between atoms: _175  and  _176
REMARK   73  A    between atoms: _179  and  _181
REMARK   74  A    between atoms: _181  and  _182
REMARK   75  A    between atoms: _181  and  _184
REMARK   76  A    between atoms: _184  and  _185
REMARK   77  A    between atoms: _185  and  _186
REMARK   78  A    between atoms: _186  and  _187
REMARK   79  A    between atoms: _187  and  _188
REMARK   80  A    between atoms: _192  and  _194
REMARK   81  A    between atoms: _194  and  _195
REMARK   82  A    between atoms: _194  and  _197
REMARK   83  A    between atoms: _199  and  _201
REMARK   84  A    between atoms: _201  and  _202
REMARK   85  A    between atoms: _201  and  _204
REMARK   86  A    between atoms: _204  and  _205
REMARK   87  A    between atoms: _207  and  _209
REMARK   88  A    between atoms: _209  and  _210
REMARK   89  A    between atoms: _209  and  _212
REMARK   90  A    between atoms: _212  and  _213
REMARK   91  A    between atoms: _217  and  _218
REMARK   92  A    between atoms: _223  and  _225
REMARK   93  A    between atoms: _225  and  _226
REMARK   94  A    between atoms: _225  and  _228
REMARK   95  A    between atoms: _228  and  _229
REMARK   96  A    between atoms: _231  and  _233
REMARK   97  A    between atoms: _233  and  _234
REMARK   98  A    between atoms: _236  and  _238
REMARK   99  A    between atoms: _238  and  _239
REMARK  100  A    between atoms: _238  and  _241
REMARK  101  A    between atoms: _241  and  _242
REMARK  102  A    between atoms: _245  and  _247
REMARK  103  A    between atoms: _247  and  _248
REMARK  104  A    between atoms: _247  and  _250
REMARK  105  A    between atoms: _250  and  _251
REMARK  106  A    between atoms: _254  and  _256
REMARK  107  A    between atoms: _256  and  _257
REMARK  108  A    between atoms: _260  and  _262
REMARK  109  A    between atoms: _262  and  _263
REMARK  110  A    between atoms: _262  and  _265
REMARK  111  A    between atoms: _265  and  _266
REMARK  112  A    between atoms: _271  and  _272
REMARK  113  A    between atoms: _274  and  _276
REMARK  114  A    between atoms: _276  and  _277
REMARK  115  A    between atoms: _276  and  _279
REMARK  116  A    between atoms: _279  and  _280
REMARK  117  A    between atoms: _285  and  _287
REMARK  118  A    between atoms: _287  and  _288
REMARK  119  A    between atoms: _287  and  _290
REMARK  120  A    between atoms: _290  and  _291
REMARK  121  A    between atoms: _291  and  _292
REMARK  122  A    between atoms: _292  and  _293
REMARK  123  A    between atoms: _293  and  _294
REMARK  124  A    between atoms: _298  and  _300
REMARK  125  A    between atoms: _300  and  _301
REMARK  126  A    between atoms: _300  and  _303
REMARK  127  A    between atoms: _303  and  _304
REMARK  128  A    between atoms: _306  and  _308
REMARK  129  A    between atoms: _308  and  _309
REMARK  130  A    between atoms: _308  and  _311
REMARK  131  A    between atoms: _311  and  _312
REMARK  132  A    between atoms: _315  and  _317
REMARK  133  A    between atoms: _317  and  _318
REMARK  134  A    between atoms: _317  and  _320
REMARK  135  A    between atoms: _320  and  _321
REMARK  136  A    between atoms: _324  and  _326
REMARK  137  A    between atoms: _326  and  _327
REMARK  138  A    between atoms: _326  and  _329
REMARK  139  A    between atoms: _329  and  _330
REMARK  140  A    between atoms: _332  and  _334
REMARK  141  A    between atoms: _334  and  _335
REMARK  142  A    between atoms: _334  and  _337
REMARK  143  A    between atoms: _340  and  _342
REMARK  144  A    between atoms: _342  and  _343
REMARK  145  A    between atoms: _342  and  _345
REMARK  146  A    between atoms: _345  and  _346
REMARK  147  A    between atoms: _349  and  _351
REMARK  148  A    between atoms: _351  and  _352
REMARK  149  A    between atoms: _351  and  _354
REMARK  150  A    between atoms: _354  and  _355
REMARK  151  A    between atoms: _360  and  _362
REMARK  152  A    between atoms: _362  and  _363
REMARK  153  A    between atoms: _362  and  _365
REMARK  154  A    between atoms: _365  and  _366
REMARK  155  A    between atoms: _369  and  _371
REMARK  156  A    between atoms: _371  and  _372
REMARK  157  A    between atoms: _371  and  _374
REMARK  158  A    between atoms: _374  and  _375
REMARK  159  A    between atoms: _381  and  _383
REMARK  160  A    between atoms: _383  and  _384
REMARK  161  A    between atoms: _383  and  _386
REMARK  162  A    between atoms: _386  and  _387
REMARK  163  A    between atoms: _387  and  _388
REMARK  164  A    between atoms: _388  and  _389
REMARK  165  A    between atoms: _398  and  _400
REMARK  166  A    between atoms: _400  and  _401
REMARK  167  A    between atoms: _400  and  _403
REMARK  168  A    between atoms: _406  and  _408
REMARK  169  A    between atoms: _408  and  _409
REMARK  170  A    between atoms: _408  and  _411
REMARK  171  A    between atoms: _411  and  _412
REMARK  172  A    between atoms: _414  and  _416
REMARK  173  A    between atoms: _416  and  _417
REMARK  174  A    between atoms: _416  and  _419
REMARK  175  A    between atoms: _419  and  _420
REMARK  176  A    between atoms: _426  and  _428
REMARK  177  A    between atoms: _428  and  _429
REMARK  178  A    between atoms: _432  and  _433
REMARK  179  A    between atoms: _438  and  _440
REMARK  180  A    between atoms: _440  and  _441
REMARK  181  A    between atoms: _440  and  _443
REMARK  182  A    between atoms: _443  and  _444
REMARK  183  A    between atoms: _450  and  _452
REMARK  184  A    between atoms: _452  and  _453
REMARK  185  A    between atoms: _452  and  _455
REMARK  186  A    between atoms: _455  and  _456
REMARK  187  A    between atoms: _462  and  _464
REMARK  188  A    between atoms: _464  and  _465
REMARK  189  A    between atoms: _464  and  _467
REMARK  190  A    between atoms: _467  and  _468
REMARK  191  A    between atoms: _468  and  _469
REMARK  192  A    between atoms: _469  and  _470
REMARK  193  A    between atoms: _479  and  _481
REMARK  194  A    between atoms: _481  and  _482
REMARK  195  A    between atoms: _484  and  _486
REMARK  196  A    between atoms: _486  and  _487
REMARK  197  A    between atoms: _486  and  _489
REMARK  198  A    between atoms: _489  and  _490
REMARK  199  A    between atoms: _493  and  _495
REMARK  200  A    between atoms: _495  and  _496
REMARK  201  A    between atoms: _498  and  _500
REMARK  202  A    between atoms: _500  and  _501
REMARK  203  A    between atoms: _500  and  _503
REMARK  204  A    between atoms: _503  and  _504
REMARK  205  A    between atoms: _504  and  _505
REMARK  206  A    between atoms: _507  and  _509
REMARK  207  A    between atoms: _509  and  _510
REMARK  208  A    between atoms: _513  and  _515
REMARK  209  A    between atoms: _515  and  _516
REMARK  210  A    between atoms: _515  and  _518
REMARK  211  A    between atoms: _518  and  _519
REMARK  212  A    between atoms: _521  and  _523
REMARK  213  A    between atoms: _523  and  _524
REMARK  214  A    between atoms: _523  and  _526
REMARK  215  A    between atoms: _526  and  _527
REMARK  216  A    between atoms: _530  and  _532
REMARK  217  A    between atoms: _532  and  _533
REMARK  218  A    between atoms: _532  and  _535
REMARK  219  A    between atoms: _535  and  _536
REMARK  220  A    between atoms: _541  and  _543
REMARK  221  A    between atoms: _543  and  _544
REMARK  222  A    between atoms: _543  and  _546
REMARK  223  A    between atoms: _546  and  _547
REMARK  224  A    between atoms: _552  and  _554
REMARK  225  A    between atoms: _554  and  _555
REMARK  226  A    between atoms: _554  and  _557
REMARK  227  A    between atoms: _560  and  _562
REMARK  228  A    between atoms: _562  and  _563
REMARK  229  A    between atoms: _562  and  _565
REMARK  230  A    between atoms: _565  and  _566
REMARK  231  A    between atoms: _571  and  _572
REMARK                            x       y       z     vdW  Elec       q    Type
REMARK                         _______ _______ _______ _____ _____    ______ ____
ROOT
ATOM      1  C   ASN A   3      18.284  15.337   5.349  0.00  0.00    +0.241 C 
ATOM      2  O   ASN A   3      19.361  15.467   4.769  0.00  0.00    -0.273 OA
ATOM      3  N   GLU A   4      17.207  14.843   4.746  0.00  0.00    -0.297 N 
ATOM      4  H   GLU A   4      16.307  14.790   5.265  0.00  0.00    +0.150 HD
ENDROOT
BRANCH   3   5
ATOM      5  CA  GLU A   4      17.271  14.373   3.360  0.00  0.00    +0.149 C 
BRANCH   5   6
ATOM      6  C   GLU A   4      15.894  14.194   2.720  0.00  0.00    +0.241 C 
ATOM      7  O   GLU A   4      14.868  14.188   3.406  0.00  0.00    -0.273 OA
ATOM      8  N   SER A   5      15.898  14.075   1.393  0.00  0.00    -0.295 N 
ATOM      9  H   SER A   5      16.762  14.333   0.875  0.00  0.00    +0.150 HD
BRANCH   8  10
ATOM     10  CA  SER A   5      14.754  13.603   0.636  0.00  0.00    +0.178 C 
BRANCH  10  11
ATOM     11  C   SER A   5      15.200  12.373  -0.139  0.00  0.00    +0.243 C 
ATOM     12  N   THR A   6      14.389  11.328  -0.133  0.00  0.00    -0.296 N 
ATOM     13  H   THR A   6      13.516  11.345   0.432  0.00  0.00    +0.150 HD
ATOM     14  O   SER A   5      16.279  12.353  -0.724  0.00  0.00    -0.273 OA
BRANCH  12  15
ATOM     15  CA  THR A   6      14.730  10.154  -0.924  0.00  0.00    +0.164 C 
BRANCH  15  16
ATOM     16  C   THR A   6      13.614   9.842  -1.898  0.00  0.00    +0.229 C 
ATOM     17  O   THR A   6      12.474  10.265  -1.727  0.00  0.00    -0.286 OA
ENDBRANCH  15  16
BRANCH  15  18
ATOM     18  CB  THR A   6      15.008   8.897  -0.057  0.00  0.00    +0.136 C 
ATOM     19  CG2 THR A   6      15.872   9.214   1.162  0.00  0.00    +0.034 C 
BRANCH  18  20
ATOM     20  OG1 THR A   6      13.777   8.414   0.484  0.00  0.00    -0.382 OA
ATOM     21  HG1 THR A   6      13.365   9.119   1.044  0.00  0.00    +0.210 HD
ENDBRANCH  18  20
ENDBRANCH  15  18
ENDBRANCH  12  15
ENDBRANCH  10  11
BRANCH  10  22
ATOM     22  CB  SER A   5      14.265  14.686  -0.331  0.00  0.00    +0.166 C 
BRANCH  22  23
ATOM     23  OG  SER A   5      13.238  14.197  -1.179  0.00  0.00    -0.380 OA
ATOM     24  H   SER A   5      12.472  13.897  -0.628  0.00  0.00    +0.211 HD
ENDBRANCH  22  23
ENDBRANCH  10  22
ENDBRANCH   8  10
ENDBRANCH   5   6
BRANCH   5  25
ATOM     25  CB  GLU A   4      18.087  13.058   3.252  0.00  0.00    +0.041 C 
BRANCH  25  26
ATOM     26  CG  GLU A   4      17.363  11.798   3.730  0.00  0.00    +0.116 C 
BRANCH  26  27
ATOM     27  CD  GLU A   4      17.214  11.751   5.234  0.00  0.00    +0.365 C 
ATOM     28  OE2 GLU A   4      18.245  11.748   5.943  0.00  0.00    -0.246 OA
ATOM     29  OE1 GLU A   4      16.062  11.731   5.715  0.00  0.00    -0.246 OA
ENDBRANCH  26  27
ENDBRANCH  25  26
ENDBRANCH   5  25
ENDBRANCH   3   5
BRANCH   1  30
ATOM     30  CA  ASN A   3      18.139  15.703   6.832  0.00  0.00    +0.158 C 
BRANCH  30  33
ATOM     31  C   LEU A   2      17.749  18.089   7.192  0.00  0.00    +0.241 C 
ATOM     32  O   LEU A   2      18.957  18.332   7.312  0.00  0.00    -0.273 OA
ATOM     33  N   ASN A   3      17.268  16.859   7.017  0.00  0.00    -0.297 N 
ATOM     34  H   ASN A   3      16.238  16.718   7.012  0.00  0.00    +0.150 HD
BRANCH  31  35
ATOM     35  CA  LEU A   2      16.710  19.213   7.272  0.00  0.00    +0.149 C 
BRANCH  35  37
ATOM     36  C   ALA A   1      15.502  19.402   5.149  0.00  0.00    +0.238 C 
ATOM     37  N   LEU A   2      15.571  18.936   6.394  0.00  0.00    -0.297 N 
ATOM     38  H   LEU A   2      14.788  18.355   6.756  0.00  0.00    +0.150 HD
ATOM     39  O   ALA A   1      16.339  20.161   4.666  0.00  0.00    -0.274 OA
BRANCH  36  40
ATOM     40  CA  ALA A   1      14.310  18.939   4.322  0.00  0.00    +0.145 C 
ATOM     41  CB  ALA A   1      14.704  17.742   3.464  0.00  0.00    +0.028 C 
BRANCH  40  42
ATOM     42  N   ALA A   1      13.754  20.013   3.495  0.00  0.00    -0.238 NA
ATOM     43  H   ALA A   1      14.358  20.475   2.786  0.00  0.00    +0.142 HD
ENDBRANCH  40  42
ENDBRANCH  36  40
ENDBRANCH  35  37
BRANCH  35  44
ATOM     44  CB  LEU A   2      16.236  19.426   8.729  0.00  0.00    +0.029 C 
BRANCH  44  45
ATOM     45  CG  LEU A   2      17.274  19.483   9.859  0.00  0.00    +0.002 C 
ATOM     46  CD2 LEU A   2      16.599  19.696  11.222  0.00  0.00    +0.000 C 
ATOM     47  CD1 LEU A   2      18.327  20.560   9.588  0.00  0.00    +0.000 C 
ENDBRANCH  44  45
ENDBRANCH  35  44
ENDBRANCH  31  35
ENDBRANCH  30  33
BRANCH  30  48
ATOM     48  CB  ASN A   3      17.608  14.485   7.610  0.00  0.00    +0.114 C 
BRANCH  48  49
ATOM     49  CG  ASN A   3      18.094  14.428   9.062  0.00  0.00    +0.222 C 
ATOM     50  ND2 ASN A   3      17.532  13.497   9.814  0.00  0.00    -0.329 N 
ATOM     51 HD21 ASN A   3      17.820  13.387  10.807  0.00  0.00    +0.145 HD
ATOM     52 HD22 ASN A   3      16.802  12.875   9.412  0.00  0.00    +0.145 HD
ATOM     53  OD1 ASN A   3      18.968  15.194   9.494  0.00  0.00    -0.275 OA
ENDBRANCH  48  49
ENDBRANCH  30  48
ENDBRANCH   1  30
TORSDOF 23
REMARK  Name = ../refined-set-2016/2i2c/2i2c_pocket.pdb
REMARK  231 active torsions:
REMARK  status: ('A' for Active; 'I' for Inactive)
REMARK    1  A    between atoms: _1  and  _3
REMARK    2  A    between atoms: _3  and  _4
REMARK    3  A    between atoms: _6  and  _8
REMARK    4  A    between atoms: _8  and  _9
REMARK    5  A    between atoms: _8  and  _11
REMARK    6  A    between atoms: _11  and  _12
REMARK    7  A    between atoms: _15  and  _17
REMARK    8  A    between atoms: _17  and  _18
REMARK    9  A    between atoms: _20  and  _22
REMARK   10  A    between atoms: _22  and  _23
REMARK   11  A    between atoms: _22  and  _25
REMARK   12  A    between atoms: _25  and  _26
REMARK   13  A    between atoms: _29  and  _31
REMARK   14  A    between atoms: _31  and  _32
REMARK   15  A    between atoms: _31  and  _34
REMARK   16  A    between atoms: _34  and  _35
REMARK   17  A    between atoms: _41  and  _43
REMARK   18  A    between atoms: _43  and  _44
REMARK   19  A    between atoms: _43  and  _46
REMARK   20  A    between atoms: _46  and  _47
REMARK   21  A    between atoms: _50  and  _52
REMARK   22  A    between atoms: _52  and  _53
REMARK   23  A    between atoms: _52  and  _55
REMARK   24  A    between atoms: _55  and  _56
REMARK   25  A    between atoms: _58  and  _60
REMARK   26  A    between atoms: _60  and  _61
REMARK   27  A    between atoms: _60  and  _63
REMARK   28  A    between atoms: _63  and  _64
REMARK   29  A    between atoms: _69  and  _71
REMARK   30  A    between atoms: _71  and  _72
REMARK   31  A    between atoms: _71  and  _74
REMARK   32  A    between atoms: _74  and  _75
REMARK   33  A    between atoms: _80  and  _82
REMARK   34  A    between atoms: _82  and  _83
REMARK   35  A    between atoms: _82  and  _85
REMARK   36  A    between atoms: _85  and  _86
REMARK   37  A    between atoms: _89  and  _91
REMARK   38  A    between atoms: _91  and  _92
REMARK   39  A    between atoms: _94  and  _96
REMARK   40  A    between atoms: _96  and  _97
REMARK   41  A    between atoms: _96  and  _99
REMARK   42  A    between atoms: _99  and  _100
REMARK   43  A    between atoms: _106  and  _108
REMARK   44  A    between atoms: _108  and  _109
REMARK   45  A    between atoms: _108  and  _111
REMARK   46  A    between atoms: _111  and  _112
REMARK   47  A    between atoms: _117  and  _118
REMARK   48  A    between atoms: _120  and  _122
REMARK   49  A    between atoms: _122  and  _123
REMARK   50  A    between atoms: _126  and  _128
REMARK   51  A    between atoms: _128  and  _129
REMARK   52  A    between atoms: _132  and  _134
REMARK   53  A    between atoms: _134  and  _135
REMARK   54  A    between atoms: _134  and  _137
REMARK   55  A    between atoms: _137  and  _138
REMARK   56  A    between atoms: _141  and  _143
REMARK   57  A    between atoms: _143  and  _144
REMARK   58  A    between atoms: _143  and  _146
REMARK   59  A    between atoms: _146  and  _147
REMARK   60  A    between atoms: _152  and  _154
REMARK   61  A    between atoms: _154  and  _155
REMARK   62  A    between atoms: _154  and  _157
REMARK   63  A    between atoms: _157  and  _158
REMARK   64  A    between atoms: _158  and  _159
REMARK   65  A    between atoms: _162  and  _164
REMARK   66  A    between atoms: _164  and  _165
REMARK   67  A    between atoms: _164  and  _167
REMARK   68  A    between atoms: _167  and  _168
REMARK   69  A    between atoms: _170  and  _172
REMARK   70  A    between atoms: _172  and  _173
REMARK   71  A    between atoms: _172  and  _175
REMARK   72  A    between atoms: _175  and  _176
REMARK   73  A    between atoms: _179  and  _181
REMARK   74  A    between atoms: _181  and  _182
REMARK   75  A    between atoms: _181  and  _184
REMARK   76  A    between atoms: _184  and  _185
REMARK   77  A    between atoms: _185  and  _186
REMARK   78  A    between atoms: _186  and  _187
REMARK   79  A    between atoms: _187  and  _188
REMARK   80  A    between atoms: _192  and  _194
REMARK   81  A    between atoms: _194  and  _195
REMARK   82  A    between atoms: _194  and  _197
REMARK   83  A    between atoms: _199  and  _201
REMARK   84  A    between atoms: _201  and  _202
REMARK   85  A    between atoms: _201  and  _204
REMARK   86  A    between atoms: _204  and  _205
REMARK   87  A    between atoms: _207  and  _209
REMARK   88  A    between atoms: _209  and  _210
REMARK   89  A    between atoms: _209  and  _212
REMARK   90  A    between atoms: _212  and  _213
REMARK   91  A    between atoms: _217  and  _218
REMARK   92  A    between atoms: _223  and  _225
REMARK   93  A    between atoms: _225  and  _226
REMARK   94  A    between atoms: _225  and  _228
REMARK   95  A    between atoms: _228  and  _229
REMARK   96  A    between atoms: _231  and  _233
REMARK   97  A    between atoms: _233  and  _234
REMARK   98  A    between atoms: _236  and  _238
REMARK   99  A    between atoms: _238  and  _239
REMARK  100  A    between atoms: _238  and  _241
REMARK  101  A    between atoms: _241  and  _242
REMARK  102  A    between atoms: _245  and  _247
REMARK  103  A    between atoms: _247  and  _248
REMARK  104  A    between atoms: _247  and  _250
REMARK  105  A    between atoms: _250  and  _251
REMARK  106  A    between atoms: _254  and  _256
REMARK  107  A    between atoms: _256  and  _257
REMARK  108  A    between atoms: _260  and  _262
REMARK  109  A    between atoms: _262  and  _263
REMARK  110  A    between atoms: _262  and  _265
REMARK  111  A    between atoms: _265  and  _266
REMARK  112  A    between atoms: _271  and  _272
REMARK  113  A    between atoms: _274  and  _276
REMARK  114  A    between atoms: _276  and  _277
REMARK  115  A    between atoms: _276  and  _279
REMARK  116  A    between atoms: _279  and  _280
REMARK  117  A    between atoms: _285  and  _287
REMARK  118  A    between atoms: _287  and  _288
REMARK  119  A    between atoms: _287  and  _290
REMARK  120  A    between atoms: _290  and  _291
REMARK  121  A    between atoms: _291  and  _292
REMARK  122  A    between atoms: _292  and  _293
REMARK  123  A    between atoms: _293  and  _294
REMARK  124  A    between atoms: _298  and  _300
REMARK  125  A    between atoms: _300  and  _301
REMARK  126  A    between atoms: _300  and  _303
REMARK  127  A    between atoms: _303  and  _304
REMARK  128  A    between atoms: _306  and  _308
REMARK  129  A    between atoms: _308  and  _309
REMARK  130  A    between atoms: _308  and  _311
REMARK  131  A    between atoms: _311  and  _312
REMARK  132  A    between atoms: _315  and  _317
REMARK  133  A    between atoms: _317  and  _318
REMARK  134  A    between atoms: _317  and  _320
REMARK  135  A    between atoms: _320  and  _321
REMARK  136  A    between atoms: _324  and  _326
REMARK  137  A    between atoms: _326  and  _327
REMARK  138  A    between atoms: _326  and  _329
REMARK  139  A    between atoms: _329  and  _330
REMARK  140  A    between atoms: _332  and  _334
REMARK  141  A    between atoms: _334  and  _335
REMARK  142  A    between atoms: _334  and  _337
REMARK  143  A    between atoms: _340  and  _342
REMARK  144  A    between atoms: _342  and  _343
REMARK  145  A    between atoms: _342  and  _345
REMARK  146  A    between atoms: _345  and  _346
REMARK  147  A    between atoms: _349  and  _351
REMARK  148  A    between atoms: _351  and  _352
REMARK  149  A    between atoms: _351  and  _354
REMARK  150  A    between atoms: _354  and  _355
REMARK  151  A    between atoms: _360  and  _362
REMARK  152  A    between atoms: _362  and  _363
REMARK  153  A    between atoms: _362  and  _365
REMARK  154  A    between atoms: _365  and  _366
REMARK  155  A    between atoms: _369  and  _371
REMARK  156  A    between atoms: _371  and  _372
REMARK  157  A    between atoms: _371  and  _374
REMARK  158  A    between atoms: _374  and  _375
REMARK  159  A    between atoms: _381  and  _383
REMARK  160  A    between atoms: _383  and  _384
REMARK  161  A    between atoms: _383  and  _386
REMARK  162  A    between atoms: _386  and  _387
REMARK  163  A    between atoms: _387  and  _388
REMARK  164  A    between atoms: _388  and  _389
REMARK  165  A    between atoms: _398  and  _400
REMARK  166  A    between atoms: _400  and  _401
REMARK  167  A    between atoms: _400  and  _403
REMARK  168  A    between atoms: _406  and  _408
REMARK  169  A    between atoms: _408  and  _409
REMARK  170  A    between atoms: _408  and  _411
REMARK  171  A    between atoms: _411  and  _412
REMARK  172  A    between atoms: _414  and  _416
REMARK  173  A    between atoms: _416  and  _417
REMARK  174  A    between atoms: _416  and  _419
REMARK  175  A    between atoms: _419  and  _420
REMARK  176  A    between atoms: _426  and  _428
REMARK  177  A    between atoms: _428  and  _429
REMARK  178  A    between atoms: _432  and  _433
REMARK  179  A    between atoms: _438  and  _440
REMARK  180  A    between atoms: _440  and  _441
REMARK  181  A    between atoms: _440  and  _443
REMARK  182  A    between atoms: _443  and  _444
REMARK  183  A    between atoms: _450  and  _452
REMARK  184  A    between atoms: _452  and  _453
REMARK  185  A    between atoms: _452  and  _455
REMARK  186  A    between atoms: _455  and  _456
REMARK  187  A    between atoms: _462  and  _464
REMARK  188  A    between atoms: _464  and  _465
REMARK  189  A    between atoms: _464  and  _467
REMARK  190  A    between atoms: _467  and  _468
REMARK  191  A    between atoms: _468  and  _469
REMARK  192  A    between atoms: _469  and  _470
REMARK  193  A    between atoms: _479  and  _481
REMARK  194  A    between atoms: _481  and  _482
REMARK  195  A    between atoms: _484  and  _486
REMARK  196  A    between atoms: _486  and  _487
REMARK  197  A    between atoms: _486  and  _489
REMARK  198  A    between atoms: _489  and  _490
REMARK  199  A    between atoms: _493  and  _495
REMARK  200  A    between atoms: _495  and  _496
REMARK  201  A    between atoms: _498  and  _500
REMARK  202  A    between atoms: _500  and  _501
REMARK  203  A    between atoms: _500  and  _503
REMARK  204  A    between atoms: _503  and  _504
REMARK  205  A    between atoms: _504  and  _505
REMARK  206  A    between atoms: _507  and  _509
REMARK  207  A    between atoms: _509  and  _510
REMARK  208  A    between atoms: _513  and  _515
REMARK  209  A    between atoms: _515  and  _516
REMARK  210  A    between atoms: _515  and  _518
REMARK  211  A    between atoms: _518  and  _519
REMARK  212  A    between atoms: _521  and  _523
REMARK  213  A    between atoms: _523  and  _524
REMARK  214  A    between atoms: _523  and  _526
REMARK  215  A    between atoms: _526  and  _527
REMARK  216  A    between atoms: _530  and  _532
REMARK  217  A    between atoms: _532  and  _533
REMARK  218  A    between atoms: _532  and  _535
REMARK  219  A    between atoms: _535  and  _536
REMARK  220  A    between atoms: _541  and  _543
REMARK  221  A    between atoms: _543  and  _544
REMARK  222  A    between atoms: _543  and  _546
REMARK  223  A    between atoms: _546  and  _547
REMARK  224  A    between atoms: _552  and  _554
REMARK  225  A    between atoms: _554  and  _555
REMARK  226  A    between atoms: _554  and  _557
REMARK  227  A    between atoms: _560  and  _562
REMARK  228  A    between atoms: _562  and  _563
REMARK  229  A    between atoms: _562  and  _565
REMARK  230  A    between atoms: _565  and  _566
REMARK  231  A    between atoms: _571  and  _572
REMARK                            x       y       z     vdW  Elec       q    Type
REMARK                         _______ _______ _______ _____ _____    ______ ____
ROOT
ATOM      1  CG  LYS A   1      12.997   4.414  -2.122  0.00  0.00    -0.000 C 
ENDROOT
BRANCH   1   2
ATOM      2  CB  LYS A   1      11.888   4.159  -3.154  0.00  0.00    +0.025 C 
BRANCH   2   3
ATOM      3  CA  LYS A   1      11.999   5.003  -4.430  0.00  0.00    +0.133 C 
BRANCH   3   4
ATOM      4  N   LYS A   1      12.050   6.423  -4.103  0.00  0.00    -0.239 NA
ATOM      5  H   LYS A   1      11.163   6.895  -3.834  0.00  0.00    +0.142 HD
ENDBRANCH   3   4
BRANCH   3   6
ATOM      6  C   LYS A   1      10.775   4.776  -5.330  0.00  0.00    +0.224 C 
ATOM      7  O   LYS A   1       9.941   5.675  -5.494  0.00  0.00    -0.287 OA
ENDBRANCH   3   6
ENDBRANCH   2   3
ENDBRANCH   1   2
BRANCH   1   8
ATOM      8  CD  LYS A   1      12.720   3.713  -0.793  0.00  0.00    -0.024 C 
BRANCH   8   9
ATOM      9  CE  LYS A   1      13.709   4.187   0.273  0.00  0.00    -0.086 C 
BRANCH   9  10
ATOM     10  NZ  LYS A   1      13.552   3.509   1.590  0.00  0.00    +0.380 N 
ATOM     11  HZ1 LYS A   1      14.256   3.884   2.257  0.00  0.00    -0.089 HD
ATOM     12  HZ2 LYS A   1      12.595   3.686   1.958  0.00  0.00    -0.089 HD
ATOM     13  HZ3 LYS A   1      13.695   2.486   1.471  0.00  0.00    -0.089 HD
ENDBRANCH   9  10
ENDBRANCH   8   9
ENDBRANCH   1   8
TORSDOF 7
REMARK  Name = ../refined-set-2016/2i2c/2i2c_pocket.pdb
REMARK  231 active torsions:
REMARK  status: ('A' for Active; 'I' for Inactive)
REMARK    1  A    between atoms: _1  and  _3
REMARK    2  A    between atoms: _3  and  _4
REMARK    3  A    between atoms: _6  and  _8
REMARK    4  A    between atoms: _8  and  _9
REMARK    5  A    between atoms: _8  and  _11
REMARK    6  A    between atoms: _11  and  _12
REMARK    7  A    between atoms: _15  and  _17
REMARK    8  A    between atoms: _17  and  _18
REMARK    9  A    between atoms: _20  and  _22
REMARK   10  A    between atoms: _22  and  _23
REMARK   11  A    between atoms: _22  and  _25
REMARK   12  A    between atoms: _25  and  _26
REMARK   13  A    between atoms: _29  and  _31
REMARK   14  A    between atoms: _31  and  _32
REMARK   15  A    between atoms: _31  and  _34
REMARK   16  A    between atoms: _34  and  _35
REMARK   17  A    between atoms: _41  and  _43
REMARK   18  A    between atoms: _43  and  _44
REMARK   19  A    between atoms: _43  and  _46
REMARK   20  A    between atoms: _46  and  _47
REMARK   21  A    between atoms: _50  and  _52
REMARK   22  A    between atoms: _52  and  _53
REMARK   23  A    between atoms: _52  and  _55
REMARK   24  A    between atoms: _55  and  _56
REMARK   25  A    between atoms: _58  and  _60
REMARK   26  A    between atoms: _60  and  _61
REMARK   27  A    between atoms: _60  and  _63
REMARK   28  A    between atoms: _63  and  _64
REMARK   29  A    between atoms: _69  and  _71
REMARK   30  A    between atoms: _71  and  _72
REMARK   31  A    between atoms: _71  and  _74
REMARK   32  A    between atoms: _74  and  _75
REMARK   33  A    between atoms: _80  and  _82
REMARK   34  A    between atoms: _82  and  _83
REMARK   35  A    between atoms: _82  and  _85
REMARK   36  A    between atoms: _85  and  _86
REMARK   37  A    between atoms: _89  and  _91
REMARK   38  A    between atoms: _91  and  _92
REMARK   39  A    between atoms: _94  and  _96
REMARK   40  A    between atoms: _96  and  _97
REMARK   41  A    between atoms: _96  and  _99
REMARK   42  A    between atoms: _99  and  _100
REMARK   43  A    between atoms: _106  and  _108
REMARK   44  A    between atoms: _108  and  _109
REMARK   45  A    between atoms: _108  and  _111
REMARK   46  A    between atoms: _111  and  _112
REMARK   47  A    between atoms: _117  and  _118
REMARK   48  A    between atoms: _120  and  _122
REMARK   49  A    between atoms: _122  and  _123
REMARK   50  A    between atoms: _126  and  _128
REMARK   51  A    between atoms: _128  and  _129
REMARK   52  A    between atoms: _132  and  _134
REMARK   53  A    between atoms: _134  and  _135
REMARK   54  A    between atoms: _134  and  _137
REMARK   55  A    between atoms: _137  and  _138
REMARK   56  A    between atoms: _141  and  _143
REMARK   57  A    between atoms: _143  and  _144
REMARK   58  A    between atoms: _143  and  _146
REMARK   59  A    between atoms: _146  and  _147
REMARK   60  A    between atoms: _152  and  _154
REMARK   61  A    between atoms: _154  and  _155
REMARK   62  A    between atoms: _154  and  _157
REMARK   63  A    between atoms: _157  and  _158
REMARK   64  A    between atoms: _158  and  _159
REMARK   65  A    between atoms: _162  and  _164
REMARK   66  A    between atoms: _164  and  _165
REMARK   67  A    between atoms: _164  and  _167
REMARK   68  A    between atoms: _167  and  _168
REMARK   69  A    between atoms: _170  and  _172
REMARK   70  A    between atoms: _172  and  _173
REMARK   71  A    between atoms: _172  and  _175
REMARK   72  A    between atoms: _175  and  _176
REMARK   73  A    between atoms: _179  and  _181
REMARK   74  A    between atoms: _181  and  _182
REMARK   75  A    between atoms: _181  and  _184
REMARK   76  A    between atoms: _184  and  _185
REMARK   77  A    between atoms: _185  and  _186
REMARK   78  A    between atoms: _186  and  _187
REMARK   79  A    between atoms: _187  and  _188
REMARK   80  A    between atoms: _192  and  _194
REMARK   81  A    between atoms: _194  and  _195
REMARK   82  A    between atoms: _194  and  _197
REMARK   83  A    between atoms: _199  and  _201
REMARK   84  A    between atoms: _201  and  _202
REMARK   85  A    between atoms: _201  and  _204
REMARK   86  A    between atoms: _204  and  _205
REMARK   87  A    between atoms: _207  and  _209
REMARK   88  A    between atoms: _209  and  _210
REMARK   89  A    between atoms: _209  and  _212
REMARK   90  A    between atoms: _212  and  _213
REMARK   91  A    between atoms: _217  and  _218
REMARK   92  A    between atoms: _223  and  _225
REMARK   93  A    between atoms: _225  and  _226
REMARK   94  A    between atoms: _225  and  _228
REMARK   95  A    between atoms: _228  and  _229
REMARK   96  A    between atoms: _231  and  _233
REMARK   97  A    between atoms: _233  and  _234
REMARK   98  A    between atoms: _236  and  _238
REMARK   99  A    between atoms: _238  and  _239
REMARK  100  A    between atoms: _238  and  _241
REMARK  101  A    between atoms: _241  and  _242
REMARK  102  A    between atoms: _245  and  _247
REMARK  103  A    between atoms: _247  and  _248
REMARK  104  A    between atoms: _247  and  _250
REMARK  105  A    between atoms: _250  and  _251
REMARK  106  A    between atoms: _254  and  _256
REMARK  107  A    between atoms: _256  and  _257
REMARK  108  A    between atoms: _260  and  _262
REMARK  109  A    between atoms: _262  and  _263
REMARK  110  A    between atoms: _262  and  _265
REMARK  111  A    between atoms: _265  and  _266
REMARK  112  A    between atoms: _271  and  _272
REMARK  113  A    between atoms: _274  and  _276
REMARK  114  A    between atoms: _276  and  _277
REMARK  115  A    between atoms: _276  and  _279
REMARK  116  A    between atoms: _279  and  _280
REMARK  117  A    between atoms: _285  and  _287
REMARK  118  A    between atoms: _287  and  _288
REMARK  119  A    between atoms: _287  and  _290
REMARK  120  A    between atoms: _290  and  _291
REMARK  121  A    between atoms: _291  and  _292
REMARK  122  A    between atoms: _292  and  _293
REMARK  123  A    between atoms: _293  and  _294
REMARK  124  A    between atoms: _298  and  _300
REMARK  125  A    between atoms: _300  and  _301
REMARK  126  A    between atoms: _300  and  _303
REMARK  127  A    between atoms: _303  and  _304
REMARK  128  A    between atoms: _306  and  _308
REMARK  129  A    between atoms: _308  and  _309
REMARK  130  A    between atoms: _308  and  _311
REMARK  131  A    between atoms: _311  and  _312
REMARK  132  A    between atoms: _315  and  _317
REMARK  133  A    between atoms: _317  and  _318
REMARK  134  A    between atoms: _317  and  _320
REMARK  135  A    between atoms: _320  and  _321
REMARK  136  A    between atoms: _324  and  _326
REMARK  137  A    between atoms: _326  and  _327
REMARK  138  A    between atoms: _326  and  _329
REMARK  139  A    between atoms: _329  and  _330
REMARK  140  A    between atoms: _332  and  _334
REMARK  141  A    between atoms: _334  and  _335
REMARK  142  A    between atoms: _334  and  _337
REMARK  143  A    between atoms: _340  and  _342
REMARK  144  A    between atoms: _342  and  _343
REMARK  145  A    between atoms: _342  and  _345
REMARK  146  A    between atoms: _345  and  _346
REMARK  147  A    between atoms: _349  and  _351
REMARK  148  A    between atoms: _351  and  _352
REMARK  149  A    between atoms: _351  and  _354
REMARK  150  A    between atoms: _354  and  _355
REMARK  151  A    between atoms: _360  and  _362
REMARK  152  A    between atoms: _362  and  _363
REMARK  153  A    between atoms: _362  and  _365
REMARK  154  A    between atoms: _365  and  _366
REMARK  155  A    between atoms: _369  and  _371
REMARK  156  A    between atoms: _371  and  _372
REMARK  157  A    between atoms: _371  and  _374
REMARK  158  A    between atoms: _374  and  _375
REMARK  159  A    between atoms: _381  and  _383
REMARK  160  A    between atoms: _383  and  _384
REMARK  161  A    between atoms: _383  and  _386
REMARK  162  A    between atoms: _386  and  _387
REMARK  163  A    between atoms: _387  and  _388
REMARK  164  A    between atoms: _388  and  _389
REMARK  165  A    between atoms: _398  and  _400
REMARK  166  A    between atoms: _400  and  _401
REMARK  167  A    between atoms: _400  and  _403
REMARK  168  A    between atoms: _406  and  _408
REMARK  169  A    between atoms: _408  and  _409
REMARK  170  A    between atoms: _408  and  _411
REMARK  171  A    between atoms: _411  and  _412
REMARK  172  A    between atoms: _414  and  _416
REMARK  173  A    between atoms: _416  and  _417
REMARK  174  A    between atoms: _416  and  _419
REMARK  175  A    between atoms: _419  and  _420
REMARK  176  A    between atoms: _426  and  _428
REMARK  177  A    between atoms: _428  and  _429
REMARK  178  A    between atoms: _432  and  _433
REMARK  179  A    between atoms: _438  and  _440
REMARK  180  A    between atoms: _440  and  _441
REMARK  181  A    between atoms: _440  and  _443
REMARK  182  A    between atoms: _443  and  _444
REMARK  183  A    between atoms: _450  and  _452
REMARK  184  A    between atoms: _452  and  _453
REMARK  185  A    between atoms: _452  and  _455
REMARK  186  A    between atoms: _455  and  _456
REMARK  187  A    between atoms: _462  and  _464
REMARK  188  A    between atoms: _464  and  _465
REMARK  189  A    between atoms: _464  and  _467
REMARK  190  A    between atoms: _467  and  _468
REMARK  191  A    between atoms: _468  and  _469
REMARK  192  A    between atoms: _469  and  _470
REMARK  193  A    between atoms: _479  and  _481
REMARK  194  A    between atoms: _481  and  _482
REMARK  195  A    between atoms: _484  and  _486
REMARK  196  A    between atoms: _486  and  _487
REMARK  197  A    between atoms: _486  and  _489
REMARK  198  A    between atoms: _489  and  _490
REMARK  199  A    between atoms: _493  and  _495
REMARK  200  A    between atoms: _495  and  _496
REMARK  201  A    between atoms: _498  and  _500
REMARK  202  A    between atoms: _500  and  _501
REMARK  203  A    between atoms: _500  and  _503
REMARK  204  A    between atoms: _503  and  _504
REMARK  205  A    between atoms: _504  and  _505
REMARK  206  A    between atoms: _507  and  _509
REMARK  207  A    between atoms: _509  and  _510
REMARK  208  A    between atoms: _513  and  _515
REMARK  209  A    between atoms: _515  and  _516
REMARK  210  A    between atoms: _515  and  _518
REMARK  211  A    between atoms: _518  and  _519
REMARK  212  A    between atoms: _521  and  _523
REMARK  213  A    between atoms: _523  and  _524
REMARK  214  A    between atoms: _523  and  _526
REMARK  215  A    between atoms: _526  and  _527
REMARK  216  A    between atoms: _530  and  _532
REMARK  217  A    between atoms: _532  and  _533
REMARK  218  A    between atoms: _532  and  _535
REMARK  219  A    between atoms: _535  and  _536
REMARK  220  A    between atoms: _541  and  _543
REMARK  221  A    between atoms: _543  and  _544
REMARK  222  A    between atoms: _543  and  _546
REMARK  223  A    between atoms: _546  and  _547
REMARK  224  A    between atoms: _552  and  _554
REMARK  225  A    between atoms: _554  and  _555
REMARK  226  A    between atoms: _554  and  _557
REMARK  227  A    between atoms: _560  and  _562
REMARK  228  A    between atoms: _562  and  _563
REMARK  229  A    between atoms: _562  and  _565
REMARK  230  A    between atoms: _565  and  _566
REMARK  231  A    between atoms: _571  and  _572
REMARK                            x       y       z     vdW  Elec       q    Type
REMARK                         _______ _______ _______ _____ _____    ______ ____
ROOT
ATOM      1  CA  CYS A   1      18.957   9.954  -1.454  0.00  0.00    +0.145 C 
ENDROOT
BRANCH   1   2
ATOM      2  N   CYS A   1      19.075   9.163  -2.665  0.00  0.00    -0.238 NA
ATOM      3  H   CYS A   1      20.015   9.043  -3.094  0.00  0.00    +0.142 HD
ENDBRANCH   1   2
BRANCH   1   4
ATOM      4  CB  CYS A   1      19.522   9.168  -0.254  0.00  0.00    +0.094 C 
ATOM      5  SG  CYS A   1      19.720  10.109   1.277  0.00  0.00    -0.080 S 
ENDBRANCH   1   4
BRANCH   1   6
ATOM      6  C   CYS A   1      19.716  11.255  -1.660  0.00  0.00    +0.225 C 
ATOM      7  O   CYS A   1      20.881  11.237  -2.074  0.00  0.00    -0.287 OA
ENDBRANCH   1   6
TORSDOF 3
REMARK  Name = ../refined-set-2016/2i2c/2i2c_pocket.pdb
REMARK  231 active torsions:
REMARK  status: ('A' for Active; 'I' for Inactive)
REMARK    1  A    between atoms: _1  and  _3
REMARK    2  A    between atoms: _3  and  _4
REMARK    3  A    between atoms: _6  and  _8
REMARK    4  A    between atoms: _8  and  _9
REMARK    5  A    between atoms: _8  and  _11
REMARK    6  A    between atoms: _11  and  _12
REMARK    7  A    between atoms: _15  and  _17
REMARK    8  A    between atoms: _17  and  _18
REMARK    9  A    between atoms: _20  and  _22
REMARK   10  A    between atoms: _22  and  _23
REMARK   11  A    between atoms: _22  and  _25
REMARK   12  A    between atoms: _25  and  _26
REMARK   13  A    between atoms: _29  and  _31
REMARK   14  A    between atoms: _31  and  _32
REMARK   15  A    between atoms: _31  and  _34
REMARK   16  A    between atoms: _34  and  _35
REMARK   17  A    between atoms: _41  and  _43
REMARK   18  A    between atoms: _43  and  _44
REMARK   19  A    between atoms: _43  and  _46
REMARK   20  A    between atoms: _46  and  _47
REMARK   21  A    between atoms: _50  and  _52
REMARK   22  A    between atoms: _52  and  _53
REMARK   23  A    between atoms: _52  and  _55
REMARK   24  A    between atoms: _55  and  _56
REMARK   25  A    between atoms: _58  and  _60
REMARK   26  A    between atoms: _60  and  _61
REMARK   27  A    between atoms: _60  and  _63
REMARK   28  A    between atoms: _63  and  _64
REMARK   29  A    between atoms: _69  and  _71
REMARK   30  A    between atoms: _71  and  _72
REMARK   31  A    between atoms: _71  and  _74
REMARK   32  A    between atoms: _74  and  _75
REMARK   33  A    between atoms: _80  and  _82
REMARK   34  A    between atoms: _82  and  _83
REMARK   35  A    between atoms: _82  and  _85
REMARK   36  A    between atoms: _85  and  _86
REMARK   37  A    between atoms: _89  and  _91
REMARK   38  A    between atoms: _91  and  _92
REMARK   39  A    between atoms: _94  and  _96
REMARK   40  A    between atoms: _96  and  _97
REMARK   41  A    between atoms: _96  and  _99
REMARK   42  A    between atoms: _99  and  _100
REMARK   43  A    between atoms: _106  and  _108
REMARK   44  A    between atoms: _108  and  _109
REMARK   45  A    between atoms: _108  and  _111
REMARK   46  A    between atoms: _111  and  _112
REMARK   47  A    between atoms: _117  and  _118
REMARK   48  A    between atoms: _120  and  _122
REMARK   49  A    between atoms: _122  and  _123
REMARK   50  A    between atoms: _126  and  _128
REMARK   51  A    between atoms: _128  and  _129
REMARK   52  A    between atoms: _132  and  _134
REMARK   53  A    between atoms: _134  and  _135
REMARK   54  A    between atoms: _134  and  _137
REMARK   55  A    between atoms: _137  and  _138
REMARK   56  A    between atoms: _141  and  _143
REMARK   57  A    between atoms: _143  and  _144
REMARK   58  A    between atoms: _143  and  _146
REMARK   59  A    between atoms: _146  and  _147
REMARK   60  A    between atoms: _152  and  _154
REMARK   61  A    between atoms: _154  and  _155
REMARK   62  A    between atoms: _154  and  _157
REMARK   63  A    between atoms: _157  and  _158
REMARK   64  A    between atoms: _158  and  _159
REMARK   65  A    between atoms: _162  and  _164
REMARK   66  A    between atoms: _164  and  _165
REMARK   67  A    between atoms: _164  and  _167
REMARK   68  A    between atoms: _167  and  _168
REMARK   69  A    between atoms: _170  and  _172
REMARK   70  A    between atoms: _172  and  _173
REMARK   71  A    between atoms: _172  and  _175
REMARK   72  A    between atoms: _175  and  _176
REMARK   73  A    between atoms: _179  and  _181
REMARK   74  A    between atoms: _181  and  _182
REMARK   75  A    between atoms: _181  and  _184
REMARK   76  A    between atoms: _184  and  _185
REMARK   77  A    between atoms: _185  and  _186
REMARK   78  A    between atoms: _186  and  _187
REMARK   79  A    between atoms: _187  and  _188
REMARK   80  A    between atoms: _192  and  _194
REMARK   81  A    between atoms: _194  and  _195
REMARK   82  A    between atoms: _194  and  _197
REMARK   83  A    between atoms: _199  and  _201
REMARK   84  A    between atoms: _201  and  _202
REMARK   85  A    between atoms: _201  and  _204
REMARK   86  A    between atoms: _204  and  _205
REMARK   87  A    between atoms: _207  and  _209
REMARK   88  A    between atoms: _209  and  _210
REMARK   89  A    between atoms: _209  and  _212
REMARK   90  A    between atoms: _212  and  _213
REMARK   91  A    between atoms: _217  and  _218
REMARK   92  A    between atoms: _223  and  _225
REMARK   93  A    between atoms: _225  and  _226
REMARK   94  A    between atoms: _225  and  _228
REMARK   95  A    between atoms: _228  and  _229
REMARK   96  A    between atoms: _231  and  _233
REMARK   97  A    between atoms: _233  and  _234
REMARK   98  A    between atoms: _236  and  _238
REMARK   99  A    between atoms: _238  and  _239
REMARK  100  A    between atoms: _238  and  _241
REMARK  101  A    between atoms: _241  and  _242
REMARK  102  A    between atoms: _245  and  _247
REMARK  103  A    between atoms: _247  and  _248
REMARK  104  A    between atoms: _247  and  _250
REMARK  105  A    between atoms: _250  and  _251
REMARK  106  A    between atoms: _254  and  _256
REMARK  107  A    between atoms: _256  and  _257
REMARK  108  A    between atoms: _260  and  _262
REMARK  109  A    between atoms: _262  and  _263
REMARK  110  A    between atoms: _262  and  _265
REMARK  111  A    between atoms: _265  and  _266
REMARK  112  A    between atoms: _271  and  _272
REMARK  113  A    between atoms: _274  and  _276
REMARK  114  A    between atoms: _276  and  _277
REMARK  115  A    between atoms: _276  and  _279
REMARK  116  A    between atoms: _279  and  _280
REMARK  117  A    between atoms: _285  and  _287
REMARK  118  A    between atoms: _287  and  _288
REMARK  119  A    between atoms: _287  and  _290
REMARK  120  A    between atoms: _290  and  _291
REMARK  121  A    between atoms: _291  and  _292
REMARK  122  A    between atoms: _292  and  _293
REMARK  123  A    between atoms: _293  and  _294
REMARK  124  A    between atoms: _298  and  _300
REMARK  125  A    between atoms: _300  and  _301
REMARK  126  A    between atoms: _300  and  _303
REMARK  127  A    between atoms: _303  and  _304
REMARK  128  A    between atoms: _306  and  _308
REMARK  129  A    between atoms: _308  and  _309
REMARK  130  A    between atoms: _308  and  _311
REMARK  131  A    between atoms: _311  and  _312
REMARK  132  A    between atoms: _315  and  _317
REMARK  133  A    between atoms: _317  and  _318
REMARK  134  A    between atoms: _317  and  _320
REMARK  135  A    between atoms: _320  and  _321
REMARK  136  A    between atoms: _324  and  _326
REMARK  137  A    between atoms: _326  and  _327
REMARK  138  A    between atoms: _326  and  _329
REMARK  139  A    between atoms: _329  and  _330
REMARK  140  A    between atoms: _332  and  _334
REMARK  141  A    between atoms: _334  and  _335
REMARK  142  A    between atoms: _334  and  _337
REMARK  143  A    between atoms: _340  and  _342
REMARK  144  A    between atoms: _342  and  _343
REMARK  145  A    between atoms: _342  and  _345
REMARK  146  A    between atoms: _345  and  _346
REMARK  147  A    between atoms: _349  and  _351
REMARK  148  A    between atoms: _351  and  _352
REMARK  149  A    between atoms: _351  and  _354
REMARK  150  A    between atoms: _354  and  _355
REMARK  151  A    between atoms: _360  and  _362
REMARK  152  A    between atoms: _362  and  _363
REMARK  153  A    between atoms: _362  and  _365
REMARK  154  A    between atoms: _365  and  _366
REMARK  155  A    between atoms: _369  and  _371
REMARK  156  A    between atoms: _371  and  _372
REMARK  157  A    between atoms: _371  and  _374
REMARK  158  A    between atoms: _374  and  _375
REMARK  159  A    between atoms: _381  and  _383
REMARK  160  A    between atoms: _383  and  _384
REMARK  161  A    between atoms: _383  and  _386
REMARK  162  A    between atoms: _386  and  _387
REMARK  163  A    between atoms: _387  and  _388
REMARK  164  A    between atoms: _388  and  _389
REMARK  165  A    between atoms: _398  and  _400
REMARK  166  A    between atoms: _400  and  _401
REMARK  167  A    between atoms: _400  and  _403
REMARK  168  A    between atoms: _406  and  _408
REMARK  169  A    between atoms: _408  and  _409
REMARK  170  A    between atoms: _408  and  _411
REMARK  171  A    between atoms: _411  and  _412
REMARK  172  A    between atoms: _414  and  _416
REMARK  173  A    between atoms: _416  and  _417
REMARK  174  A    between atoms: _416  and  _419
REMARK  175  A    between atoms: _419  and  _420
REMARK  176  A    between atoms: _426  and  _428
REMARK  177  A    between atoms: _428  and  _429
REMARK  178  A    between atoms: _432  and  _433
REMARK  179  A    between atoms: _438  and  _440
REMARK  180  A    between atoms: _440  and  _441
REMARK  181  A    between atoms: _440  and  _443
REMARK  182  A    between atoms: _443  and  _444
REMARK  183  A    between atoms: _450  and  _452
REMARK  184  A    between atoms: _452  and  _453
REMARK  185  A    between atoms: _452  and  _455
REMARK  186  A    between atoms: _455  and  _456
REMARK  187  A    between atoms: _462  and  _464
REMARK  188  A    between atoms: _464  and  _465
REMARK  189  A    between atoms: _464  and  _467
REMARK  190  A    between atoms: _467  and  _468
REMARK  191  A    between atoms: _468  and  _469
REMARK  192  A    between atoms: _469  and  _470
REMARK  193  A    between atoms: _479  and  _481
REMARK  194  A    between atoms: _481  and  _482
REMARK  195  A    between atoms: _484  and  _486
REMARK  196  A    between atoms: _486  and  _487
REMARK  197  A    between atoms: _486  and  _489
REMARK  198  A    between atoms: _489  and  _490
REMARK  199  A    between atoms: _493  and  _495
REMARK  200  A    between atoms: _495  and  _496
REMARK  201  A    between atoms: _498  and  _500
REMARK  202  A    between atoms: _500  and  _501
REMARK  203  A    between atoms: _500  and  _503
REMARK  204  A    between atoms: _503  and  _504
REMARK  205  A    between atoms: _504  and  _505
REMARK  206  A    between atoms: _507  and  _509
REMARK  207  A    between atoms: _509  and  _510
REMARK  208  A    between atoms: _513  and  _515
REMARK  209  A    between atoms: _515  and  _516
REMARK  210  A    between atoms: _515  and  _518
REMARK  211  A    between atoms: _518  and  _519
REMARK  212  A    between atoms: _521  and  _523
REMARK  213  A    between atoms: _523  and  _524
REMARK  214  A    between atoms: _523  and  _526
REMARK  215  A    between atoms: _526  and  _527
REMARK  216  A    between atoms: _530  and  _532
REMARK  217  A    between atoms: _532  and  _533
REMARK  218  A    between atoms: _532  and  _535
REMARK  219  A    between atoms: _535  and  _536
REMARK  220  A    between atoms: _541  and  _543
REMARK  221  A    between atoms: _543  and  _544
REMARK  222  A    between atoms: _543  and  _546
REMARK  223  A    between atoms: _546  and  _547
REMARK  224  A    between atoms: _552  and  _554
REMARK  225  A    between atoms: _554  and  _555
REMARK  226  A    between atoms: _554  and  _557
REMARK  227  A    between atoms: _560  and  _562
REMARK  228  A    between atoms: _562  and  _563
REMARK  229  A    between atoms: _562  and  _565
REMARK  230  A    between atoms: _565  and  _566
REMARK  231  A    between atoms: _571  and  _572
REMARK                            x       y       z     vdW  Elec       q    Type
REMARK                         _______ _______ _______ _____ _____    ______ ____
ROOT
ATOM      1  CA  ALA A   8      21.957  10.017   8.914  0.00  0.00    +0.149 C 
ATOM      2  CB  ALA A   8      20.713  10.922   8.959  0.00  0.00    +0.031 C 
ENDROOT
BRANCH   1   3
ATOM      3  C   ALA A   8      21.881   8.981   7.786  0.00  0.00    +0.241 C 
ATOM      4  O   ALA A   8      22.835   8.223   7.580  0.00  0.00    -0.273 OA
ATOM      5  N   TYR A   9      20.759   8.938   7.062  0.00  0.00    -0.297 N 
ATOM      6  H   TYR A   9      19.987   9.593   7.298  0.00  0.00    +0.150 HD
BRANCH   5   7
ATOM      7  CA  TYR A   9      20.573   7.997   5.941  0.00  0.00    +0.153 C 
BRANCH   7   8
ATOM      8  C   TYR A   9      21.775   7.997   4.959  0.00  0.00    +0.241 C 
ATOM      9  O   TYR A   9      22.261   6.940   4.574  0.00  0.00    -0.273 OA
ATOM     10  N   ASN A  10      22.231   9.188   4.574  0.00  0.00    -0.297 N 
ATOM     11  H   ASN A  10      21.711  10.034   4.882  0.00  0.00    +0.150 HD
BRANCH  10  12
ATOM     12  CA  ASN A  10      23.423   9.376   3.742  0.00  0.00    +0.158 C 
BRANCH  12  13
ATOM     13  C   ASN A  10      24.608   8.499   4.191  0.00  0.00    +0.241 C 
ATOM     14  N   LYS A  11      24.891   8.501   5.494  0.00  0.00    -0.297 N 
ATOM     15  H   LYS A  11      24.303   9.065   6.140  0.00  0.00    +0.150 HD
ATOM     16  O   ASN A  10      25.243   7.831   3.371  0.00  0.00    -0.273 OA
BRANCH  14  17
ATOM     17  CA  LYS A  11      26.010   7.727   6.037  0.00  0.00    +0.149 C 
BRANCH  17  18
ATOM     18  C   LYS A  11      25.848   6.223   5.794  0.00  0.00    +0.241 C 
ATOM     19  N   SER A  12      24.642   5.711   6.051  0.00  0.00    -0.295 N 
ATOM     20  H   SER A  12      23.896   6.339   6.412  0.00  0.00    +0.150 HD
ATOM     21  O   LYS A  11      26.793   5.545   5.369  0.00  0.00    -0.273 OA
BRANCH  19  22
ATOM     22  CA  SER A  12      24.334   4.294   5.842  0.00  0.00    +0.178 C 
BRANCH  22  23
ATOM     23  C   SER A  12      24.521   3.848   4.397  0.00  0.00    +0.243 C 
ATOM     24  O   SER A  12      24.785   2.680   4.131  0.00  0.00    -0.273 OA
ATOM     25  N   LEU A  13      24.361   4.782   3.470  0.00  0.00    -0.298 N 
ATOM     26  H   LEU A  13      24.138   5.752   3.771  0.00  0.00    +0.150 HD
BRANCH  25  27
ATOM     27  CA  LEU A  13      24.485   4.502   2.042  0.00  0.00    +0.137 C 
BRANCH  27  28
ATOM     28  C   LEU A  13      25.893   4.731   1.497  0.00  0.00    +0.227 C 
ATOM     29  O   LEU A  13      26.110   4.641   0.288  0.00  0.00    -0.286 OA
ENDBRANCH  27  28
BRANCH  27  30
ATOM     30  CB  LEU A  13      23.483   5.351   1.248  0.00  0.00    +0.028 C 
BRANCH  30  31
ATOM     31  CG  LEU A  13      22.003   5.072   1.545  0.00  0.00    +0.002 C 
ATOM     32  CD2 LEU A  13      21.583   3.677   1.082  0.00  0.00    +0.000 C 
ATOM     33  CD1 LEU A  13      21.125   6.154   0.925  0.00  0.00    +0.000 C 
ENDBRANCH  30  31
ENDBRANCH  27  30
ENDBRANCH  25  27
ENDBRANCH  22  23
BRANCH  22  34
ATOM     34  CB  SER A  12      22.898   3.998   6.267  0.00  0.00    +0.166 C 
BRANCH  34  35
ATOM     35  OG  SER A  12      22.716   4.315   7.619  0.00  0.00    -0.380 OA
ATOM     36  H   SER A  12      21.782   4.118   7.880  0.00  0.00    +0.211 HD
ENDBRANCH  34  35
ENDBRANCH  22  34
ENDBRANCH  19  22
ENDBRANCH  17  18
BRANCH  17  37
ATOM     37  CB  LYS A  11      26.204   8.024   7.532  0.00  0.00    +0.029 C 
BRANCH  37  38
ATOM     38  CG  LYS A  11      27.521   7.499   8.077  0.00  0.00    +0.000 C 
BRANCH  38  39
ATOM     39  CD  LYS A  11      27.651   7.796   9.559  0.00  0.00    -0.024 C 
BRANCH  39  40
ATOM     40  CE  LYS A  11      29.087   7.601  10.023  0.00  0.00    -0.086 C 
BRANCH  40  41
ATOM     41  NZ  LYS A  11      29.598   6.228   9.786  0.00  0.00    +0.380 N 
ATOM     42  HZ1 LYS A  11      29.006   5.545  10.301  0.00  0.00    -0.089 HD
ATOM     43  HZ2 LYS A  11      30.579   6.162  10.124  0.00  0.00    -0.089 HD
ATOM     44  HZ3 LYS A  11      29.565   6.018   8.768  0.00  0.00    -0.089 HD
ENDBRANCH  40  41
ENDBRANCH  39  40
ENDBRANCH  38  39
ENDBRANCH  37  38
ENDBRANCH  17  37
ENDBRANCH  14  17
ENDBRANCH  12  13
BRANCH  12  45
ATOM     45  CB  ASN A  10      23.811  10.864   3.733  0.00  0.00    +0.114 C 
BRANCH  45  46
ATOM     46  CG  ASN A  10      25.116  11.137   2.990  0.00  0.00    +0.222 C 
ATOM     47  ND2 ASN A  10      26.225  11.162   3.729  0.00  0.00    -0.329 N 
ATOM     48 HD21 ASN A  10      26.171  10.990   4.753  0.00  0.00    +0.145 HD
ATOM     49 HD22 ASN A  10      27.144  11.353   3.281  0.00  0.00    +0.145 HD
ATOM     50  OD1 ASN A  10      25.122  11.334   1.771  0.00  0.00    -0.275 OA
ENDBRANCH  45  46
ENDBRANCH  12  45
ENDBRANCH  10  12
ENDBRANCH   7   8
BRANCH   7  51
ATOM     51  CB  TYR A   9      19.277   8.362   5.199  0.00  0.00    +0.055 C 
BRANCH  51  52
ATOM     52  CG  TYR A   9      18.548   7.231   4.484  0.00  0.00    -0.020 A 
ATOM     53  CD2 TYR A   9      19.174   6.011   4.191  0.00  0.00    -0.001 A 
ATOM     54  CE2 TYR A   9      18.476   4.981   3.523  0.00  0.00    +0.036 A 
ATOM     55  CZ  TYR A   9      17.153   5.191   3.142  0.00  0.00    +0.134 A 
ATOM     56  CE1 TYR A   9      16.521   6.387   3.428  0.00  0.00    +0.036 A 
ATOM     57  CD1 TYR A   9      17.220   7.401   4.079  0.00  0.00    -0.001 A 
BRANCH  55  58
ATOM     58  OH  TYR A   9      16.440   4.214   2.484  0.00  0.00    -0.506 OA
ATOM     59  HH  TYR A   9      17.017   3.421   2.349  0.00  0.00    +0.292 HD
ENDBRANCH  55  58
ENDBRANCH  51  52
ENDBRANCH   7  51
ENDBRANCH   5   7
ENDBRANCH   1   3
BRANCH   1  62
ATOM     60  C   THR A   7      24.239  10.606   9.553  0.00  0.00    +0.243 C 
ATOM     61  O   THR A   7      24.307   9.664  10.351  0.00  0.00    -0.273 OA
ATOM     62  N   ALA A   8      23.174  10.831   8.794  0.00  0.00    -0.297 N 
ATOM     63  H   ALA A   8      23.202  11.603   8.097  0.00  0.00    +0.150 HD
BRANCH  60  64
ATOM     64  CA  THR A   7      25.402  11.595   9.411  0.00  0.00    +0.176 C 
BRANCH  64  66
ATOM     65  C   THR A   6      25.427  12.330   7.060  0.00  0.00    +0.243 C 
ATOM     66  N   THR A   7      25.189  12.591   8.348  0.00  0.00    -0.295 N 
ATOM     67  H   THR A   7      24.840  13.535   8.610  0.00  0.00    +0.150 HD
ATOM     68  O   THR A   6      25.871  11.263   6.659  0.00  0.00    -0.273 OA
BRANCH  65  69
ATOM     69  CA  THR A   6      25.105  13.431   6.058  0.00  0.00    +0.176 C 
BRANCH  69  72
ATOM     70  C   GLY A   5      22.870  14.048   6.798  0.00  0.00    +0.243 C 
ATOM     71  O   GLY A   5      22.534  12.857   6.782  0.00  0.00    -0.273 OA
ATOM     72  N   THR A   6      24.125  14.426   6.546  0.00  0.00    -0.295 N 
ATOM     73  H   THR A   6      24.412  15.415   6.692  0.00  0.00    +0.150 HD
BRANCH  70  74
ATOM     74  CA  GLY A   5      21.839  15.126   7.124  0.00  0.00    +0.176 C 
BRANCH  74  77
ATOM     75  C   SER A   4      23.083  16.640   8.581  0.00  0.00    +0.243 C 
ATOM     76  O   SER A   4      23.245  15.766   9.434  0.00  0.00    -0.273 OA
ATOM     77  N   GLY A   5      22.369  16.442   7.479  0.00  0.00    -0.295 N 
ATOM     78  H   GLY A   5      22.181  17.248   6.849  0.00  0.00    +0.150 HD
BRANCH  75  79
ATOM     79  CA  SER A   4      23.748  18.016   8.728  0.00  0.00    +0.178 C 
BRANCH  79  81
ATOM     80  C   PRO A   3      25.009  18.050   6.638  0.00  0.00    +0.241 C 
ATOM     81  N   SER A   4      24.089  18.611   7.421  0.00  0.00    -0.295 N 
ATOM     82  H   SER A   4      23.606  19.477   7.108  0.00  0.00    +0.150 HD
ATOM     83  O   PRO A   3      25.605  17.023   6.957  0.00  0.00    -0.273 OA
BRANCH  80  87
ATOM     84  C   THR A   2      23.227  17.900   4.196  0.00  0.00    +0.246 C 
ATOM     85  O   THR A   2      23.482  16.729   4.495  0.00  0.00    -0.273 OA
ATOM     86  N   PRO A   3      24.053  18.906   4.487  0.00  0.00    -0.272 N 
ATOM     87  CA  PRO A   3      25.279  18.687   5.267  0.00  0.00    +0.152 C 
ATOM     88  CB  PRO A   3      25.866  20.096   5.393  0.00  0.00    +0.031 C 
ATOM     89  CG  PRO A   3      25.323  20.819   4.177  0.00  0.00    +0.024 C 
ATOM     90  CD  PRO A   3      23.909  20.322   4.081  0.00  0.00    +0.094 C 
BRANCH  84  91
ATOM     91  CA  THR A   2      21.897  18.247   3.503  0.00  0.00    +0.176 C 
BRANCH  91  93
ATOM     92  C   SER A   1      21.690  16.326   1.971  0.00  0.00    +0.241 C 
ATOM     93  N   THR A   2      21.261  17.001   3.043  0.00  0.00    -0.295 N 
ATOM     94  H   THR A   2      20.446  16.631   3.573  0.00  0.00    +0.150 HD
ATOM     95  O   SER A   1      22.422  16.824   1.109  0.00  0.00    -0.274 OA
BRANCH  92  96
ATOM     96  CA  SER A   1      21.191  14.884   1.832  0.00  0.00    +0.174 C 
BRANCH  96  97
ATOM     97  N   SER A   1      20.949  14.489   0.441  0.00  0.00    -0.236 NA
ATOM     98  H   SER A   1      21.766  14.373  -0.191  0.00  0.00    +0.142 HD
ENDBRANCH  96  97
BRANCH  96  99
ATOM     99  CB  SER A   1      22.215  13.933   2.449  0.00  0.00    +0.163 C 
BRANCH  99 100
ATOM    100  OG  SER A   1      22.440  14.236   3.811  0.00  0.00    -0.380 OA
ATOM    101  H   SER A   1      22.781  15.162   3.890  0.00  0.00    +0.211 HD
ENDBRANCH  99 100
ENDBRANCH  96  99
ENDBRANCH  92  96
ENDBRANCH  91  93
BRANCH  91 102
ATOM    102  CB  THR A   2      21.027  18.974   4.550  0.00  0.00    +0.137 C 
ATOM    103  CG2 THR A   2      19.586  19.220   4.048  0.00  0.00    +0.034 C 
BRANCH 102 104
ATOM    104  OG1 THR A   2      20.895  18.137   5.704  0.00  0.00    -0.382 OA
ATOM    105  HG1 THR A   2      20.338  18.596   6.381  0.00  0.00    +0.210 HD
ENDBRANCH 102 104
ENDBRANCH  91 102
ENDBRANCH  84  91
ENDBRANCH  80  87
ENDBRANCH  79  81
BRANCH  79 106
ATOM    106  CB  SER A   4      22.923  18.974   9.596  0.00  0.00    +0.166 C 
BRANCH 106 107
ATOM    107  OG  SER A   4      21.660  19.247   9.027  0.00  0.00    -0.380 OA
ATOM    108  H   SER A   4      21.783  19.663   8.137  0.00  0.00    +0.211 HD
ENDBRANCH 106 107
ENDBRANCH  79 106
ENDBRANCH  75  79
ENDBRANCH  74  77
ENDBRANCH  70  74
ENDBRANCH  69  72
BRANCH  69 109
ATOM    109  CB  THR A   6      26.429  14.052   5.525  0.00  0.00    +0.137 C 
ATOM    110  CG2 THR A   6      26.167  14.950   4.320  0.00  0.00    +0.034 C 
BRANCH 109 111
ATOM    111  OG1 THR A   6      27.039  14.885   6.522  0.00  0.00    -0.382 OA
ATOM    112  HG1 THR A   6      26.418  15.617   6.764  0.00  0.00    +0.210 HD
ENDBRANCH 109 111
ENDBRANCH  69 109
ENDBRANCH  65  69
ENDBRANCH  64  66
BRANCH  64 113
ATOM    113  CB  THR A   7      25.625  12.291  10.772  0.00  0.00    +0.137 C 
ATOM    114  CG2 THR A   7      26.926  13.092  10.778  0.00  0.00    +0.034 C 
BRANCH 113 115
ATOM    115  OG1 THR A   7      24.626  13.295  10.959  0.00  0.00    -0.382 OA
ATOM    116  HG1 THR A   7      23.730  12.874  10.944  0.00  0.00    +0.210 HD
ENDBRANCH 113 115
ENDBRANCH  64 113
ENDBRANCH  60  64
ENDBRANCH   1  62
TORSDOF 49
REMARK  Name = ../refined-set-2016/2i2c/2i2c_pocket.pdb
REMARK  231 active torsions:
REMARK  status: ('A' for Active; 'I' for Inactive)
REMARK    1  A    between atoms: _1  and  _3
REMARK    2  A    between atoms: _3  and  _4
REMARK    3  A    between atoms: _6  and  _8
REMARK    4  A    between atoms: _8  and  _9
REMARK    5  A    between atoms: _8  and  _11
REMARK    6  A    between atoms: _11  and  _12
REMARK    7  A    between atoms: _15  and  _17
REMARK    8  A    between atoms: _17  and  _18
REMARK    9  A    between atoms: _20  and  _22
REMARK   10  A    between atoms: _22  and  _23
REMARK   11  A    between atoms: _22  and  _25
REMARK   12  A    between atoms: _25  and  _26
REMARK   13  A    between atoms: _29  and  _31
REMARK   14  A    between atoms: _31  and  _32
REMARK   15  A    between atoms: _31  and  _34
REMARK   16  A    between atoms: _34  and  _35
REMARK   17  A    between atoms: _41  and  _43
REMARK   18  A    between atoms: _43  and  _44
REMARK   19  A    between atoms: _43  and  _46
REMARK   20  A    between atoms: _46  and  _47
REMARK   21  A    between atoms: _50  and  _52
REMARK   22  A    between atoms: _52  and  _53
REMARK   23  A    between atoms: _52  and  _55
REMARK   24  A    between atoms: _55  and  _56
REMARK   25  A    between atoms: _58  and  _60
REMARK   26  A    between atoms: _60  and  _61
REMARK   27  A    between atoms: _60  and  _63
REMARK   28  A    between atoms: _63  and  _64
REMARK   29  A    between atoms: _69  and  _71
REMARK   30  A    between atoms: _71  and  _72
REMARK   31  A    between atoms: _71  and  _74
REMARK   32  A    between atoms: _74  and  _75
REMARK   33  A    between atoms: _80  and  _82
REMARK   34  A    between atoms: _82  and  _83
REMARK   35  A    between atoms: _82  and  _85
REMARK   36  A    between atoms: _85  and  _86
REMARK   37  A    between atoms: _89  and  _91
REMARK   38  A    between atoms: _91  and  _92
REMARK   39  A    between atoms: _94  and  _96
REMARK   40  A    between atoms: _96  and  _97
REMARK   41  A    between atoms: _96  and  _99
REMARK   42  A    between atoms: _99  and  _100
REMARK   43  A    between atoms: _106  and  _108
REMARK   44  A    between atoms: _108  and  _109
REMARK   45  A    between atoms: _108  and  _111
REMARK   46  A    between atoms: _111  and  _112
REMARK   47  A    between atoms: _117  and  _118
REMARK   48  A    between atoms: _120  and  _122
REMARK   49  A    between atoms: _122  and  _123
REMARK   50  A    between atoms: _126  and  _128
REMARK   51  A    between atoms: _128  and  _129
REMARK   52  A    between atoms: _132  and  _134
REMARK   53  A    between atoms: _134  and  _135
REMARK   54  A    between atoms: _134  and  _137
REMARK   55  A    between atoms: _137  and  _138
REMARK   56  A    between atoms: _141  and  _143
REMARK   57  A    between atoms: _143  and  _144
REMARK   58  A    between atoms: _143  and  _146
REMARK   59  A    between atoms: _146  and  _147
REMARK   60  A    between atoms: _152  and  _154
REMARK   61  A    between atoms: _154  and  _155
REMARK   62  A    between atoms: _154  and  _157
REMARK   63  A    between atoms: _157  and  _158
REMARK   64  A    between atoms: _158  and  _159
REMARK   65  A    between atoms: _162  and  _164
REMARK   66  A    between atoms: _164  and  _165
REMARK   67  A    between atoms: _164  and  _167
REMARK   68  A    between atoms: _167  and  _168
REMARK   69  A    between atoms: _170  and  _172
REMARK   70  A    between atoms: _172  and  _173
REMARK   71  A    between atoms: _172  and  _175
REMARK   72  A    between atoms: _175  and  _176
REMARK   73  A    between atoms: _179  and  _181
REMARK   74  A    between atoms: _181  and  _182
REMARK   75  A    between atoms: _181  and  _184
REMARK   76  A    between atoms: _184  and  _185
REMARK   77  A    between atoms: _185  and  _186
REMARK   78  A    between atoms: _186  and  _187
REMARK   79  A    between atoms: _187  and  _188
REMARK   80  A    between atoms: _192  and  _194
REMARK   81  A    between atoms: _194  and  _195
REMARK   82  A    between atoms: _194  and  _197
REMARK   83  A    between atoms: _199  and  _201
REMARK   84  A    between atoms: _201  and  _202
REMARK   85  A    between atoms: _201  and  _204
REMARK   86  A    between atoms: _204  and  _205
REMARK   87  A    between atoms: _207  and  _209
REMARK   88  A    between atoms: _209  and  _210
REMARK   89  A    between atoms: _209  and  _212
REMARK   90  A    between atoms: _212  and  _213
REMARK   91  A    between atoms: _217  and  _218
REMARK   92  A    between atoms: _223  and  _225
REMARK   93  A    between atoms: _225  and  _226
REMARK   94  A    between atoms: _225  and  _228
REMARK   95  A    between atoms: _228  and  _229
REMARK   96  A    between atoms: _231  and  _233
REMARK   97  A    between atoms: _233  and  _234
REMARK   98  A    between atoms: _236  and  _238
REMARK   99  A    between atoms: _238  and  _239
REMARK  100  A    between atoms: _238  and  _241
REMARK  101  A    between atoms: _241  and  _242
REMARK  102  A    between atoms: _245  and  _247
REMARK  103  A    between atoms: _247  and  _248
REMARK  104  A    between atoms: _247  and  _250
REMARK  105  A    between atoms: _250  and  _251
REMARK  106  A    between atoms: _254  and  _256
REMARK  107  A    between atoms: _256  and  _257
REMARK  108  A    between atoms: _260  and  _262
REMARK  109  A    between atoms: _262  and  _263
REMARK  110  A    between atoms: _262  and  _265
REMARK  111  A    between atoms: _265  and  _266
REMARK  112  A    between atoms: _271  and  _272
REMARK  113  A    between atoms: _274  and  _276
REMARK  114  A    between atoms: _276  and  _277
REMARK  115  A    between atoms: _276  and  _279
REMARK  116  A    between atoms: _279  and  _280
REMARK  117  A    between atoms: _285  and  _287
REMARK  118  A    between atoms: _287  and  _288
REMARK  119  A    between atoms: _287  and  _290
REMARK  120  A    between atoms: _290  and  _291
REMARK  121  A    between atoms: _291  and  _292
REMARK  122  A    between atoms: _292  and  _293
REMARK  123  A    between atoms: _293  and  _294
REMARK  124  A    between atoms: _298  and  _300
REMARK  125  A    between atoms: _300  and  _301
REMARK  126  A    between atoms: _300  and  _303
REMARK  127  A    between atoms: _303  and  _304
REMARK  128  A    between atoms: _306  and  _308
REMARK  129  A    between atoms: _308  and  _309
REMARK  130  A    between atoms: _308  and  _311
REMARK  131  A    between atoms: _311  and  _312
REMARK  132  A    between atoms: _315  and  _317
REMARK  133  A    between atoms: _317  and  _318
REMARK  134  A    between atoms: _317  and  _320
REMARK  135  A    between atoms: _320  and  _321
REMARK  136  A    between atoms: _324  and  _326
REMARK  137  A    between atoms: _326  and  _327
REMARK  138  A    between atoms: _326  and  _329
REMARK  139  A    between atoms: _329  and  _330
REMARK  140  A    between atoms: _332  and  _334
REMARK  141  A    between atoms: _334  and  _335
REMARK  142  A    between atoms: _334  and  _337
REMARK  143  A    between atoms: _340  and  _342
REMARK  144  A    between atoms: _342  and  _343
REMARK  145  A    between atoms: _342  and  _345
REMARK  146  A    between atoms: _345  and  _346
REMARK  147  A    between atoms: _349  and  _351
REMARK  148  A    between atoms: _351  and  _352
REMARK  149  A    between atoms: _351  and  _354
REMARK  150  A    between atoms: _354  and  _355
REMARK  151  A    between atoms: _360  and  _362
REMARK  152  A    between atoms: _362  and  _363
REMARK  153  A    between atoms: _362  and  _365
REMARK  154  A    between atoms: _365  and  _366
REMARK  155  A    between atoms: _369  and  _371
REMARK  156  A    between atoms: _371  and  _372
REMARK  157  A    between atoms: _371  and  _374
REMARK  158  A    between atoms: _374  and  _375
REMARK  159  A    between atoms: _381  and  _383
REMARK  160  A    between atoms: _383  and  _384
REMARK  161  A    between atoms: _383  and  _386
REMARK  162  A    between atoms: _386  and  _387
REMARK  163  A    between atoms: _387  and  _388
REMARK  164  A    between atoms: _388  and  _389
REMARK  165  A    between atoms: _398  and  _400
REMARK  166  A    between atoms: _400  and  _401
REMARK  167  A    between atoms: _400  and  _403
REMARK  168  A    between atoms: _406  and  _408
REMARK  169  A    between atoms: _408  and  _409
REMARK  170  A    between atoms: _408  and  _411
REMARK  171  A    between atoms: _411  and  _412
REMARK  172  A    between atoms: _414  and  _416
REMARK  173  A    between atoms: _416  and  _417
REMARK  174  A    between atoms: _416  and  _419
REMARK  175  A    between atoms: _419  and  _420
REMARK  176  A    between atoms: _426  and  _428
REMARK  177  A    between atoms: _428  and  _429
REMARK  178  A    between atoms: _432  and  _433
REMARK  179  A    between atoms: _438  and  _440
REMARK  180  A    between atoms: _440  and  _441
REMARK  181  A    between atoms: _440  and  _443
REMARK  182  A    between atoms: _443  and  _444
REMARK  183  A    between atoms: _450  and  _452
REMARK  184  A    between atoms: _452  and  _453
REMARK  185  A    between atoms: _452  and  _455
REMARK  186  A    between atoms: _455  and  _456
REMARK  187  A    between atoms: _462  and  _464
REMARK  188  A    between atoms: _464  and  _465
REMARK  189  A    between atoms: _464  and  _467
REMARK  190  A    between atoms: _467  and  _468
REMARK  191  A    between atoms: _468  and  _469
REMARK  192  A    between atoms: _469  and  _470
REMARK  193  A    between atoms: _479  and  _481
REMARK  194  A    between atoms: _481  and  _482
REMARK  195  A    between atoms: _484  and  _486
REMARK  196  A    between atoms: _486  and  _487
REMARK  197  A    between atoms: _486  and  _489
REMARK  198  A    between atoms: _489  and  _490
REMARK  199  A    between atoms: _493  and  _495
REMARK  200  A    between atoms: _495  and  _496
REMARK  201  A    between atoms: _498  and  _500
REMARK  202  A    between atoms: _500  and  _501
REMARK  203  A    between atoms: _500  and  _503
REMARK  204  A    between atoms: _503  and  _504
REMARK  205  A    between atoms: _504  and  _505
REMARK  206  A    between atoms: _507  and  _509
REMARK  207  A    between atoms: _509  and  _510
REMARK  208  A    between atoms: _513  and  _515
REMARK  209  A    between atoms: _515  and  _516
REMARK  210  A    between atoms: _515  and  _518
REMARK  211  A    between atoms: _518  and  _519
REMARK  212  A    between atoms: _521  and  _523
REMARK  213  A    between atoms: _523  and  _524
REMARK  214  A    between atoms: _523  and  _526
REMARK  215  A    between atoms: _526  and  _527
REMARK  216  A    between atoms: _530  and  _532
REMARK  217  A    between atoms: _532  and  _533
REMARK  218  A    between atoms: _532  and  _535
REMARK  219  A    between atoms: _535  and  _536
REMARK  220  A    between atoms: _541  and  _543
REMARK  221  A    between atoms: _543  and  _544
REMARK  222  A    between atoms: _543  and  _546
REMARK  223  A    between atoms: _546  and  _547
REMARK  224  A    between atoms: _552  and  _554
REMARK  225  A    between atoms: _554  and  _555
REMARK  226  A    between atoms: _554  and  _557
REMARK  227  A    between atoms: _560  and  _562
REMARK  228  A    between atoms: _562  and  _563
REMARK  229  A    between atoms: _562  and  _565
REMARK  230  A    between atoms: _565  and  _566
REMARK  231  A    between atoms: _571  and  _572
REMARK                            x       y       z     vdW  Elec       q    Type
REMARK                         _______ _______ _______ _____ _____    ______ ____
ROOT
ATOM      1  CA  LEU A   1      30.198  13.367   6.159  0.00  0.00    +0.133 C 
ENDROOT
BRANCH   1   2
ATOM      2  N   LEU A   1      30.671  12.416   5.150  0.00  0.00    -0.239 NA
ATOM      3  H   LEU A   1      31.553  11.888   5.309  0.00  0.00    +0.142 HD
ENDBRANCH   1   2
BRANCH   1   4
ATOM      4  C   LEU A   1      30.728  14.753   5.786  0.00  0.00    +0.224 C 
ATOM      5  O   LEU A   1      31.914  14.912   5.521  0.00  0.00    -0.287 OA
ENDBRANCH   1   4
BRANCH   1   6
ATOM      6  CB  LEU A   1      30.645  12.959   7.566  0.00  0.00    +0.025 C 
BRANCH   6   7
ATOM      7  CG  LEU A   1      30.358  11.510   8.006  0.00  0.00    +0.002 C 
ATOM      8  CD2 LEU A   1      30.724  11.280   9.466  0.00  0.00    +0.000 C 
ATOM      9  CD1 LEU A   1      28.900  11.099   7.759  0.00  0.00    +0.000 C 
ENDBRANCH   6   7
ENDBRANCH   1   6
TORSDOF 4
REMARK  Name = ../refined-set-2016/2i2c/2i2c_pocket.pdb
REMARK  231 active torsions:
REMARK  status: ('A' for Active; 'I' for Inactive)
REMARK    1  A    between atoms: _1  and  _3
REMARK    2  A    between atoms: _3  and  _4
REMARK    3  A    between atoms: _6  and  _8
REMARK    4  A    between atoms: _8  and  _9
REMARK    5  A    between atoms: _8  and  _11
REMARK    6  A    between atoms: _11  and  _12
REMARK    7  A    between atoms: _15  and  _17
REMARK    8  A    between atoms: _17  and  _18
REMARK    9  A    between atoms: _20  and  _22
REMARK   10  A    between atoms: _22  and  _23
REMARK   11  A    between atoms: _22  and  _25
REMARK   12  A    between atoms: _25  and  _26
REMARK   13  A    between atoms: _29  and  _31
REMARK   14  A    between atoms: _31  and  _32
REMARK   15  A    between atoms: _31  and  _34
REMARK   16  A    between atoms: _34  and  _35
REMARK   17  A    between atoms: _41  and  _43
REMARK   18  A    between atoms: _43  and  _44
REMARK   19  A    between atoms: _43  and  _46
REMARK   20  A    between atoms: _46  and  _47
REMARK   21  A    between atoms: _50  and  _52
REMARK   22  A    between atoms: _52  and  _53
REMARK   23  A    between atoms: _52  and  _55
REMARK   24  A    between atoms: _55  and  _56
REMARK   25  A    between atoms: _58  and  _60
REMARK   26  A    between atoms: _60  and  _61
REMARK   27  A    between atoms: _60  and  _63
REMARK   28  A    between atoms: _63  and  _64
REMARK   29  A    between atoms: _69  and  _71
REMARK   30  A    between atoms: _71  and  _72
REMARK   31  A    between atoms: _71  and  _74
REMARK   32  A    between atoms: _74  and  _75
REMARK   33  A    between atoms: _80  and  _82
REMARK   34  A    between atoms: _82  and  _83
REMARK   35  A    between atoms: _82  and  _85
REMARK   36  A    between atoms: _85  and  _86
REMARK   37  A    between atoms: _89  and  _91
REMARK   38  A    between atoms: _91  and  _92
REMARK   39  A    between atoms: _94  and  _96
REMARK   40  A    between atoms: _96  and  _97
REMARK   41  A    between atoms: _96  and  _99
REMARK   42  A    between atoms: _99  and  _100
REMARK   43  A    between atoms: _106  and  _108
REMARK   44  A    between atoms: _108  and  _109
REMARK   45  A    between atoms: _108  and  _111
REMARK   46  A    between atoms: _111  and  _112
REMARK   47  A    between atoms: _117  and  _118
REMARK   48  A    between atoms: _120  and  _122
REMARK   49  A    between atoms: _122  and  _123
REMARK   50  A    between atoms: _126  and  _128
REMARK   51  A    between atoms: _128  and  _129
REMARK   52  A    between atoms: _132  and  _134
REMARK   53  A    between atoms: _134  and  _135
REMARK   54  A    between atoms: _134  and  _137
REMARK   55  A    between atoms: _137  and  _138
REMARK   56  A    between atoms: _141  and  _143
REMARK   57  A    between atoms: _143  and  _144
REMARK   58  A    between atoms: _143  and  _146
REMARK   59  A    between atoms: _146  and  _147
REMARK   60  A    between atoms: _152  and  _154
REMARK   61  A    between atoms: _154  and  _155
REMARK   62  A    between atoms: _154  and  _157
REMARK   63  A    between atoms: _157  and  _158
REMARK   64  A    between atoms: _158  and  _159
REMARK   65  A    between atoms: _162  and  _164
REMARK   66  A    between atoms: _164  and  _165
REMARK   67  A    between atoms: _164  and  _167
REMARK   68  A    between atoms: _167  and  _168
REMARK   69  A    between atoms: _170  and  _172
REMARK   70  A    between atoms: _172  and  _173
REMARK   71  A    between atoms: _172  and  _175
REMARK   72  A    between atoms: _175  and  _176
REMARK   73  A    between atoms: _179  and  _181
REMARK   74  A    between atoms: _181  and  _182
REMARK   75  A    between atoms: _181  and  _184
REMARK   76  A    between atoms: _184  and  _185
REMARK   77  A    between atoms: _185  and  _186
REMARK   78  A    between atoms: _186  and  _187
REMARK   79  A    between atoms: _187  and  _188
REMARK   80  A    between atoms: _192  and  _194
REMARK   81  A    between atoms: _194  and  _195
REMARK   82  A    between atoms: _194  and  _197
REMARK   83  A    between atoms: _199  and  _201
REMARK   84  A    between atoms: _201  and  _202
REMARK   85  A    between atoms: _201  and  _204
REMARK   86  A    between atoms: _204  and  _205
REMARK   87  A    between atoms: _207  and  _209
REMARK   88  A    between atoms: _209  and  _210
REMARK   89  A    between atoms: _209  and  _212
REMARK   90  A    between atoms: _212  and  _213
REMARK   91  A    between atoms: _217  and  _218
REMARK   92  A    between atoms: _223  and  _225
REMARK   93  A    between atoms: _225  and  _226
REMARK   94  A    between atoms: _225  and  _228
REMARK   95  A    between atoms: _228  and  _229
REMARK   96  A    between atoms: _231  and  _233
REMARK   97  A    between atoms: _233  and  _234
REMARK   98  A    between atoms: _236  and  _238
REMARK   99  A    between atoms: _238  and  _239
REMARK  100  A    between atoms: _238  and  _241
REMARK  101  A    between atoms: _241  and  _242
REMARK  102  A    between atoms: _245  and  _247
REMARK  103  A    between atoms: _247  and  _248
REMARK  104  A    between atoms: _247  and  _250
REMARK  105  A    between atoms: _250  and  _251
REMARK  106  A    between atoms: _254  and  _256
REMARK  107  A    between atoms: _256  and  _257
REMARK  108  A    between atoms: _260  and  _262
REMARK  109  A    between atoms: _262  and  _263
REMARK  110  A    between atoms: _262  and  _265
REMARK  111  A    between atoms: _265  and  _266
REMARK  112  A    between atoms: _271  and  _272
REMARK  113  A    between atoms: _274  and  _276
REMARK  114  A    between atoms: _276  and  _277
REMARK  115  A    between atoms: _276  and  _279
REMARK  116  A    between atoms: _279  and  _280
REMARK  117  A    between atoms: _285  and  _287
REMARK  118  A    between atoms: _287  and  _288
REMARK  119  A    between atoms: _287  and  _290
REMARK  120  A    between atoms: _290  and  _291
REMARK  121  A    between atoms: _291  and  _292
REMARK  122  A    between atoms: _292  and  _293
REMARK  123  A    between atoms: _293  and  _294
REMARK  124  A    between atoms: _298  and  _300
REMARK  125  A    between atoms: _300  and  _301
REMARK  126  A    between atoms: _300  and  _303
REMARK  127  A    between atoms: _303  and  _304
REMARK  128  A    between atoms: _306  and  _308
REMARK  129  A    between atoms: _308  and  _309
REMARK  130  A    between atoms: _308  and  _311
REMARK  131  A    between atoms: _311  and  _312
REMARK  132  A    between atoms: _315  and  _317
REMARK  133  A    between atoms: _317  and  _318
REMARK  134  A    between atoms: _317  and  _320
REMARK  135  A    between atoms: _320  and  _321
REMARK  136  A    between atoms: _324  and  _326
REMARK  137  A    between atoms: _326  and  _327
REMARK  138  A    between atoms: _326  and  _329
REMARK  139  A    between atoms: _329  and  _330
REMARK  140  A    between atoms: _332  and  _334
REMARK  141  A    between atoms: _334  and  _335
REMARK  142  A    between atoms: _334  and  _337
REMARK  143  A    between atoms: _340  and  _342
REMARK  144  A    between atoms: _342  and  _343
REMARK  145  A    between atoms: _342  and  _345
REMARK  146  A    between atoms: _345  and  _346
REMARK  147  A    between atoms: _349  and  _351
REMARK  148  A    between atoms: _351  and  _352
REMARK  149  A    between atoms: _351  and  _354
REMARK  150  A    between atoms: _354  and  _355
REMARK  151  A    between atoms: _360  and  _362
REMARK  152  A    between atoms: _362  and  _363
REMARK  153  A    between atoms: _362  and  _365
REMARK  154  A    between atoms: _365  and  _366
REMARK  155  A    between atoms: _369  and  _371
REMARK  156  A    between atoms: _371  and  _372
REMARK  157  A    between atoms: _371  and  _374
REMARK  158  A    between atoms: _374  and  _375
REMARK  159  A    between atoms: _381  and  _383
REMARK  160  A    between atoms: _383  and  _384
REMARK  161  A    between atoms: _383  and  _386
REMARK  162  A    between atoms: _386  and  _387
REMARK  163  A    between atoms: _387  and  _388
REMARK  164  A    between atoms: _388  and  _389
REMARK  165  A    between atoms: _398  and  _400
REMARK  166  A    between atoms: _400  and  _401
REMARK  167  A    between atoms: _400  and  _403
REMARK  168  A    between atoms: _406  and  _408
REMARK  169  A    between atoms: _408  and  _409
REMARK  170  A    between atoms: _408  and  _411
REMARK  171  A    between atoms: _411  and  _412
REMARK  172  A    between atoms: _414  and  _416
REMARK  173  A    between atoms: _416  and  _417
REMARK  174  A    between atoms: _416  and  _419
REMARK  175  A    between atoms: _419  and  _420
REMARK  176  A    between atoms: _426  and  _428
REMARK  177  A    between atoms: _428  and  _429
REMARK  178  A    between atoms: _432  and  _433
REMARK  179  A    between atoms: _438  and  _440
REMARK  180  A    between atoms: _440  and  _441
REMARK  181  A    between atoms: _440  and  _443
REMARK  182  A    between atoms: _443  and  _444
REMARK  183  A    between atoms: _450  and  _452
REMARK  184  A    between atoms: _452  and  _453
REMARK  185  A    between atoms: _452  and  _455
REMARK  186  A    between atoms: _455  and  _456
REMARK  187  A    between atoms: _462  and  _464
REMARK  188  A    between atoms: _464  and  _465
REMARK  189  A    between atoms: _464  and  _467
REMARK  190  A    between atoms: _467  and  _468
REMARK  191  A    between atoms: _468  and  _469
REMARK  192  A    between atoms: _469  and  _470
REMARK  193  A    between atoms: _479  and  _481
REMARK  194  A    between atoms: _481  and  _482
REMARK  195  A    between atoms: _484  and  _486
REMARK  196  A    between atoms: _486  and  _487
REMARK  197  A    between atoms: _486  and  _489
REMARK  198  A    between atoms: _489  and  _490
REMARK  199  A    between atoms: _493  and  _495
REMARK  200  A    between atoms: _495  and  _496
REMARK  201  A    between atoms: _498  and  _500
REMARK  202  A    between atoms: _500  and  _501
REMARK  203  A    between atoms: _500  and  _503
REMARK  204  A    between atoms: _503  and  _504
REMARK  205  A    between atoms: _504  and  _505
REMARK  206  A    between atoms: _507  and  _509
REMARK  207  A    between atoms: _509  and  _510
REMARK  208  A    between atoms: _513  and  _515
REMARK  209  A    between atoms: _515  and  _516
REMARK  210  A    between atoms: _515  and  _518
REMARK  211  A    between atoms: _518  and  _519
REMARK  212  A    between atoms: _521  and  _523
REMARK  213  A    between atoms: _523  and  _524
REMARK  214  A    between atoms: _523  and  _526
REMARK  215  A    between atoms: _526  and  _527
REMARK  216  A    between atoms: _530  and  _532
REMARK  217  A    between atoms: _532  and  _533
REMARK  218  A    between atoms: _532  and  _535
REMARK  219  A    between atoms: _535  and  _536
REMARK  220  A    between atoms: _541  and  _543
REMARK  221  A    between atoms: _543  and  _544
REMARK  222  A    between atoms: _543  and  _546
REMARK  223  A    between atoms: _546  and  _547
REMARK  224  A    between atoms: _552  and  _554
REMARK  225  A    between atoms: _554  and  _555
REMARK  226  A    between atoms: _554  and  _557
REMARK  227  A    between atoms: _560  and  _562
REMARK  228  A    between atoms: _562  and  _563
REMARK  229  A    between atoms: _562  and  _565
REMARK  230  A    between atoms: _565  and  _566
REMARK  231  A    between atoms: _571  and  _572
REMARK                            x       y       z     vdW  Elec       q    Type
REMARK                         _______ _______ _______ _____ _____    ______ ____
ROOT
ATOM      1  CA  ASP A   3      12.887  13.555   6.574  0.00  0.00    +0.160 C 
ENDROOT
BRANCH   1   2
ATOM      2  C   ASP A   3      11.957  12.406   7.001  0.00  0.00    +0.241 C 
ATOM      3  N   HIS A   4      11.157  12.581   8.057  0.00  0.00    -0.297 N 
ATOM      4  H   HIS A   4      11.155  13.493   8.556  0.00  0.00    +0.150 HD
ATOM      5  O   ASP A   3      11.952  11.369   6.347  0.00  0.00    -0.273 OA
BRANCH   3   6
ATOM      6  CA  HIS A   4      10.278  11.492   8.520  0.00  0.00    +0.155 C 
BRANCH   6   7
ATOM      7  C   HIS A   4       9.066  11.248   7.606  0.00  0.00    +0.241 C 
ATOM      8  O   HIS A   4       8.545  10.133   7.533  0.00  0.00    -0.273 OA
ATOM      9  N   LEU A   5       8.626  12.295   6.918  0.00  0.00    -0.298 N 
ATOM     10  H   LEU A   5       9.138  13.196   7.008  0.00  0.00    +0.150 HD
BRANCH   9  11
ATOM     11  CA  LEU A   5       7.458  12.244   6.041  0.00  0.00    +0.137 C 
BRANCH  11  12
ATOM     12  C   LEU A   5       7.729  11.382   4.793  0.00  0.00    +0.227 C 
ATOM     13  O   LEU A   5       8.767  11.508   4.155  0.00  0.00    -0.286 OA
ENDBRANCH  11  12
BRANCH  11  14
ATOM     14  CB  LEU A   5       7.067  13.685   5.663  0.00  0.00    +0.028 C 
BRANCH  14  15
ATOM     15  CG  LEU A   5       5.894  14.149   4.774  0.00  0.00    +0.002 C 
ATOM     16  CD2 LEU A   5       4.545  13.549   5.177  0.00  0.00    +0.000 C 
ATOM     17  CD1 LEU A   5       6.190  13.945   3.280  0.00  0.00    +0.000 C 
ENDBRANCH  14  15
ENDBRANCH  11  14
ENDBRANCH   9  11
ENDBRANCH   6   7
BRANCH   6  18
ATOM     18  CB  HIS A   4       9.824  11.710   9.971  0.00  0.00    +0.076 C 
BRANCH  18  19
ATOM     19  CG  HIS A   4       8.846  10.682  10.455  0.00  0.00    +0.082 A 
ATOM     20  ND1 HIS A   4       9.238   9.476  10.995  0.00  0.00    -0.227 NA
ATOM     21  CE1 HIS A   4       8.168   8.770  11.317  0.00  0.00    +0.199 A 
ATOM     22  NE2 HIS A   4       7.095   9.470  10.996  0.00  0.00    -0.221 NA
ATOM     23  CD2 HIS A   4       7.491  10.669  10.453  0.00  0.00    +0.115 A 
ENDBRANCH  18  19
ENDBRANCH   6  18
ENDBRANCH   3   6
ENDBRANCH   1   2
BRANCH   1  26
ATOM     24  C   VAL A   2      11.427  14.130   4.700  0.00  0.00    +0.241 C 
ATOM     25  O   VAL A   2      10.447  14.216   5.435  0.00  0.00    -0.273 OA
ATOM     26  N   ASP A   3      12.650  13.875   5.159  0.00  0.00    -0.297 N 
ATOM     27  H   ASP A   3      13.456  13.903   4.502  0.00  0.00    +0.150 HD
BRANCH  24  28
ATOM     28  CA  VAL A   2      11.270  14.253   3.192  0.00  0.00    +0.148 C 
BRANCH  28  30
ATOM     29  C   SER A   1      11.066  12.247   1.801  0.00  0.00    +0.241 C 
ATOM     30  N   VAL A   2      10.639  12.994   2.814  0.00  0.00    -0.297 N 
ATOM     31  H   VAL A   2       9.818  12.666   3.362  0.00  0.00    +0.150 HD
ATOM     32  O   SER A   1      11.921  12.616   0.994  0.00  0.00    -0.274 OA
BRANCH  29  33
ATOM     33  CA  SER A   1      10.425  10.873   1.676  0.00  0.00    +0.174 C 
BRANCH  33  34
ATOM     34  N   SER A   1      10.270  10.526   0.269  0.00  0.00    -0.236 NA
ATOM     35  H   SER A   1      11.112  10.241  -0.271  0.00  0.00    +0.142 HD
ENDBRANCH  33  34
BRANCH  33  36
ATOM     36  CB  SER A   1      11.304   9.856   2.399  0.00  0.00    +0.163 C 
BRANCH  36  37
ATOM     37  OG  SER A   1      12.689  10.123   2.155  0.00  0.00    -0.380 OA
ATOM     38  H   SER A   1      12.912  11.030   2.483  0.00  0.00    +0.211 HD
ENDBRANCH  36  37
ENDBRANCH  33  36
ENDBRANCH  29  33
ENDBRANCH  28  30
BRANCH  28  39
ATOM     39  CB  VAL A   2      10.385  15.477   2.810  0.00  0.00    +0.027 C 
ATOM     40  CG2 VAL A   2      10.981  16.784   3.342  0.00  0.00    +0.002 C 
ATOM     41  CG1 VAL A   2      10.186  15.553   1.294  0.00  0.00    +0.002 C 
ENDBRANCH  28  39
ENDBRANCH  24  28
ENDBRANCH   1  26
BRANCH   1  42
ATOM     42  CB  ASP A   3      12.737  14.813   7.451  0.00  0.00    +0.143 C 
BRANCH  42  43
ATOM     43  CG  ASP A   3      13.717  15.914   7.056  0.00  0.00    +0.367 C 
ATOM     44  OD2 ASP A   3      13.481  17.126   7.201  0.00  0.00    -0.246 OA
ATOM     45  OD1 ASP A   3      14.815  15.589   6.558  0.00  0.00    -0.246 OA
ENDBRANCH  42  43
ENDBRANCH   1  42
TORSDOF 19
REMARK  Name = ../refined-set-2016/2i2c/2i2c_pocket.pdb
REMARK  231 active torsions:
REMARK  status: ('A' for Active; 'I' for Inactive)
REMARK    1  A    between atoms: _1  and  _3
REMARK    2  A    between atoms: _3  and  _4
REMARK    3  A    between atoms: _6  and  _8
REMARK    4  A    between atoms: _8  and  _9
REMARK    5  A    between atoms: _8  and  _11
REMARK    6  A    between atoms: _11  and  _12
REMARK    7  A    between atoms: _15  and  _17
REMARK    8  A    between atoms: _17  and  _18
REMARK    9  A    between atoms: _20  and  _22
REMARK   10  A    between atoms: _22  and  _23
REMARK   11  A    between atoms: _22  and  _25
REMARK   12  A    between atoms: _25  and  _26
REMARK   13  A    between atoms: _29  and  _31
REMARK   14  A    between atoms: _31  and  _32
REMARK   15  A    between atoms: _31  and  _34
REMARK   16  A    between atoms: _34  and  _35
REMARK   17  A    between atoms: _41  and  _43
REMARK   18  A    between atoms: _43  and  _44
REMARK   19  A    between atoms: _43  and  _46
REMARK   20  A    between atoms: _46  and  _47
REMARK   21  A    between atoms: _50  and  _52
REMARK   22  A    between atoms: _52  and  _53
REMARK   23  A    between atoms: _52  and  _55
REMARK   24  A    between atoms: _55  and  _56
REMARK   25  A    between atoms: _58  and  _60
REMARK   26  A    between atoms: _60  and  _61
REMARK   27  A    between atoms: _60  and  _63
REMARK   28  A    between atoms: _63  and  _64
REMARK   29  A    between atoms: _69  and  _71
REMARK   30  A    between atoms: _71  and  _72
REMARK   31  A    between atoms: _71  and  _74
REMARK   32  A    between atoms: _74  and  _75
REMARK   33  A    between atoms: _80  and  _82
REMARK   34  A    between atoms: _82  and  _83
REMARK   35  A    between atoms: _82  and  _85
REMARK   36  A    between atoms: _85  and  _86
REMARK   37  A    between atoms: _89  and  _91
REMARK   38  A    between atoms: _91  and  _92
REMARK   39  A    between atoms: _94  and  _96
REMARK   40  A    between atoms: _96  and  _97
REMARK   41  A    between atoms: _96  and  _99
REMARK   42  A    between atoms: _99  and  _100
REMARK   43  A    between atoms: _106  and  _108
REMARK   44  A    between atoms: _108  and  _109
REMARK   45  A    between atoms: _108  and  _111
REMARK   46  A    between atoms: _111  and  _112
REMARK   47  A    between atoms: _117  and  _118
REMARK   48  A    between atoms: _120  and  _122
REMARK   49  A    between atoms: _122  and  _123
REMARK   50  A    between atoms: _126  and  _128
REMARK   51  A    between atoms: _128  and  _129
REMARK   52  A    between atoms: _132  and  _134
REMARK   53  A    between atoms: _134  and  _135
REMARK   54  A    between atoms: _134  and  _137
REMARK   55  A    between atoms: _137  and  _138
REMARK   56  A    between atoms: _141  and  _143
REMARK   57  A    between atoms: _143  and  _144
REMARK   58  A    between atoms: _143  and  _146
REMARK   59  A    between atoms: _146  and  _147
REMARK   60  A    between atoms: _152  and  _154
REMARK   61  A    between atoms: _154  and  _155
REMARK   62  A    between atoms: _154  and  _157
REMARK   63  A    between atoms: _157  and  _158
REMARK   64  A    between atoms: _158  and  _159
REMARK   65  A    between atoms: _162  and  _164
REMARK   66  A    between atoms: _164  and  _165
REMARK   67  A    between atoms: _164  and  _167
REMARK   68  A    between atoms: _167  and  _168
REMARK   69  A    between atoms: _170  and  _172
REMARK   70  A    between atoms: _172  and  _173
REMARK   71  A    between atoms: _172  and  _175
REMARK   72  A    between atoms: _175  and  _176
REMARK   73  A    between atoms: _179  and  _181
REMARK   74  A    between atoms: _181  and  _182
REMARK   75  A    between atoms: _181  and  _184
REMARK   76  A    between atoms: _184  and  _185
REMARK   77  A    between atoms: _185  and  _186
REMARK   78  A    between atoms: _186  and  _187
REMARK   79  A    between atoms: _187  and  _188
REMARK   80  A    between atoms: _192  and  _194
REMARK   81  A    between atoms: _194  and  _195
REMARK   82  A    between atoms: _194  and  _197
REMARK   83  A    between atoms: _199  and  _201
REMARK   84  A    between atoms: _201  and  _202
REMARK   85  A    between atoms: _201  and  _204
REMARK   86  A    between atoms: _204  and  _205
REMARK   87  A    between atoms: _207  and  _209
REMARK   88  A    between atoms: _209  and  _210
REMARK   89  A    between atoms: _209  and  _212
REMARK   90  A    between atoms: _212  and  _213
REMARK   91  A    between atoms: _217  and  _218
REMARK   92  A    between atoms: _223  and  _225
REMARK   93  A    between atoms: _225  and  _226
REMARK   94  A    between atoms: _225  and  _228
REMARK   95  A    between atoms: _228  and  _229
REMARK   96  A    between atoms: _231  and  _233
REMARK   97  A    between atoms: _233  and  _234
REMARK   98  A    between atoms: _236  and  _238
REMARK   99  A    between atoms: _238  and  _239
REMARK  100  A    between atoms: _238  and  _241
REMARK  101  A    between atoms: _241  and  _242
REMARK  102  A    between atoms: _245  and  _247
REMARK  103  A    between atoms: _247  and  _248
REMARK  104  A    between atoms: _247  and  _250
REMARK  105  A    between atoms: _250  and  _251
REMARK  106  A    between atoms: _254  and  _256
REMARK  107  A    between atoms: _256  and  _257
REMARK  108  A    between atoms: _260  and  _262
REMARK  109  A    between atoms: _262  and  _263
REMARK  110  A    between atoms: _262  and  _265
REMARK  111  A    between atoms: _265  and  _266
REMARK  112  A    between atoms: _271  and  _272
REMARK  113  A    between atoms: _274  and  _276
REMARK  114  A    between atoms: _276  and  _277
REMARK  115  A    between atoms: _276  and  _279
REMARK  116  A    between atoms: _279  and  _280
REMARK  117  A    between atoms: _285  and  _287
REMARK  118  A    between atoms: _287  and  _288
REMARK  119  A    between atoms: _287  and  _290
REMARK  120  A    between atoms: _290  and  _291
REMARK  121  A    between atoms: _291  and  _292
REMARK  122  A    between atoms: _292  and  _293
REMARK  123  A    between atoms: _293  and  _294
REMARK  124  A    between atoms: _298  and  _300
REMARK  125  A    between atoms: _300  and  _301
REMARK  126  A    between atoms: _300  and  _303
REMARK  127  A    between atoms: _303  and  _304
REMARK  128  A    between atoms: _306  and  _308
REMARK  129  A    between atoms: _308  and  _309
REMARK  130  A    between atoms: _308  and  _311
REMARK  131  A    between atoms: _311  and  _312
REMARK  132  A    between atoms: _315  and  _317
REMARK  133  A    between atoms: _317  and  _318
REMARK  134  A    between atoms: _317  and  _320
REMARK  135  A    between atoms: _320  and  _321
REMARK  136  A    between atoms: _324  and  _326
REMARK  137  A    between atoms: _326  and  _327
REMARK  138  A    between atoms: _326  and  _329
REMARK  139  A    between atoms: _329  and  _330
REMARK  140  A    between atoms: _332  and  _334
REMARK  141  A    between atoms: _334  and  _335
REMARK  142  A    between atoms: _334  and  _337
REMARK  143  A    between atoms: _340  and  _342
REMARK  144  A    between atoms: _342  and  _343
REMARK  145  A    between atoms: _342  and  _345
REMARK  146  A    between atoms: _345  and  _346
REMARK  147  A    between atoms: _349  and  _351
REMARK  148  A    between atoms: _351  and  _352
REMARK  149  A    between atoms: _351  and  _354
REMARK  150  A    between atoms: _354  and  _355
REMARK  151  A    between atoms: _360  and  _362
REMARK  152  A    between atoms: _362  and  _363
REMARK  153  A    between atoms: _362  and  _365
REMARK  154  A    between atoms: _365  and  _366
REMARK  155  A    between atoms: _369  and  _371
REMARK  156  A    between atoms: _371  and  _372
REMARK  157  A    between atoms: _371  and  _374
REMARK  158  A    between atoms: _374  and  _375
REMARK  159  A    between atoms: _381  and  _383
REMARK  160  A    between atoms: _383  and  _384
REMARK  161  A    between atoms: _383  and  _386
REMARK  162  A    between atoms: _386  and  _387
REMARK  163  A    between atoms: _387  and  _388
REMARK  164  A    between atoms: _388  and  _389
REMARK  165  A    between atoms: _398  and  _400
REMARK  166  A    between atoms: _400  and  _401
REMARK  167  A    between atoms: _400  and  _403
REMARK  168  A    between atoms: _406  and  _408
REMARK  169  A    between atoms: _408  and  _409
REMARK  170  A    between atoms: _408  and  _411
REMARK  171  A    between atoms: _411  and  _412
REMARK  172  A    between atoms: _414  and  _416
REMARK  173  A    between atoms: _416  and  _417
REMARK  174  A    between atoms: _416  and  _419
REMARK  175  A    between atoms: _419  and  _420
REMARK  176  A    between atoms: _426  and  _428
REMARK  177  A    between atoms: _428  and  _429
REMARK  178  A    between atoms: _432  and  _433
REMARK  179  A    between atoms: _438  and  _440
REMARK  180  A    between atoms: _440  and  _441
REMARK  181  A    between atoms: _440  and  _443
REMARK  182  A    between atoms: _443  and  _444
REMARK  183  A    between atoms: _450  and  _452
REMARK  184  A    between atoms: _452  and  _453
REMARK  185  A    between atoms: _452  and  _455
REMARK  186  A    between atoms: _455  and  _456
REMARK  187  A    between atoms: _462  and  _464
REMARK  188  A    between atoms: _464  and  _465
REMARK  189  A    between atoms: _464  and  _467
REMARK  190  A    between atoms: _467  and  _468
REMARK  191  A    between atoms: _468  and  _469
REMARK  192  A    between atoms: _469  and  _470
REMARK  193  A    between atoms: _479  and  _481
REMARK  194  A    between atoms: _481  and  _482
REMARK  195  A    between atoms: _484  and  _486
REMARK  196  A    between atoms: _486  and  _487
REMARK  197  A    between atoms: _486  and  _489
REMARK  198  A    between atoms: _489  and  _490
REMARK  199  A    between atoms: _493  and  _495
REMARK  200  A    between atoms: _495  and  _496
REMARK  201  A    between atoms: _498  and  _500
REMARK  202  A    between atoms: _500  and  _501
REMARK  203  A    between atoms: _500  and  _503
REMARK  204  A    between atoms: _503  and  _504
REMARK  205  A    between atoms: _504  and  _505
REMARK  206  A    between atoms: _507  and  _509
REMARK  207  A    between atoms: _509  and  _510
REMARK  208  A    between atoms: _513  and  _515
REMARK  209  A    between atoms: _515  and  _516
REMARK  210  A    between atoms: _515  and  _518
REMARK  211  A    between atoms: _518  and  _519
REMARK  212  A    between atoms: _521  and  _523
REMARK  213  A    between atoms: _523  and  _524
REMARK  214  A    between atoms: _523  and  _526
REMARK  215  A    between atoms: _526  and  _527
REMARK  216  A    between atoms: _530  and  _532
REMARK  217  A    between atoms: _532  and  _533
REMARK  218  A    between atoms: _532  and  _535
REMARK  219  A    between atoms: _535  and  _536
REMARK  220  A    between atoms: _541  and  _543
REMARK  221  A    between atoms: _543  and  _544
REMARK  222  A    between atoms: _543  and  _546
REMARK  223  A    between atoms: _546  and  _547
REMARK  224  A    between atoms: _552  and  _554
REMARK  225  A    between atoms: _554  and  _555
REMARK  226  A    between atoms: _554  and  _557
REMARK  227  A    between atoms: _560  and  _562
REMARK  228  A    between atoms: _562  and  _563
REMARK  229  A    between atoms: _562  and  _565
REMARK  230  A    between atoms: _565  and  _566
REMARK  231  A    between atoms: _571  and  _572
REMARK                            x       y       z     vdW  Elec       q    Type
REMARK                         _______ _______ _______ _____ _____    ______ ____
ROOT
ATOM      1  CB  PHE A   1      30.176  19.917  13.097  0.00  0.00    +0.051 C 
ENDROOT
BRANCH   1   2
ATOM      2  CG  PHE A   1      29.596  18.860  12.206  0.00  0.00    -0.020 A 
ATOM      3  CD2 PHE A   1      28.229  18.604  12.206  0.00  0.00    -0.004 A 
ATOM      4  CE2 PHE A   1      27.687  17.633  11.363  0.00  0.00    -0.000 A 
ATOM      5  CZ  PHE A   1      28.519  16.917  10.508  0.00  0.00    -0.000 A 
ATOM      6  CE1 PHE A   1      29.890  17.173  10.497  0.00  0.00    -0.000 A 
ATOM      7  CD1 PHE A   1      30.416  18.138  11.347  0.00  0.00    -0.004 A 
ENDBRANCH   1   2
BRANCH   1   8
ATOM      8  CA  PHE A   1      30.402  19.458  14.542  0.00  0.00    +0.137 C 
BRANCH   8   9
ATOM      9  N   PHE A   1      30.968  20.542  15.338  0.00  0.00    -0.239 NA
ATOM     10  H   PHE A   1      31.071  21.479  14.899  0.00  0.00    +0.142 HD
ENDBRANCH   8   9
BRANCH   8  11
ATOM     11  C   PHE A   1      31.238  18.173  14.584  0.00  0.00    +0.224 C 
ATOM     12  O   PHE A   1      30.691  17.099  14.797  0.00  0.00    -0.287 OA
ENDBRANCH   8  11
ENDBRANCH   1   8
TORSDOF 4
REMARK  Name = ../refined-set-2016/2i2c/2i2c_pocket.pdb
REMARK  231 active torsions:
REMARK  status: ('A' for Active; 'I' for Inactive)
REMARK    1  A    between atoms: _1  and  _3
REMARK    2  A    between atoms: _3  and  _4
REMARK    3  A    between atoms: _6  and  _8
REMARK    4  A    between atoms: _8  and  _9
REMARK    5  A    between atoms: _8  and  _11
REMARK    6  A    between atoms: _11  and  _12
REMARK    7  A    between atoms: _15  and  _17
REMARK    8  A    between atoms: _17  and  _18
REMARK    9  A    between atoms: _20  and  _22
REMARK   10  A    between atoms: _22  and  _23
REMARK   11  A    between atoms: _22  and  _25
REMARK   12  A    between atoms: _25  and  _26
REMARK   13  A    between atoms: _29  and  _31
REMARK   14  A    between atoms: _31  and  _32
REMARK   15  A    between atoms: _31  and  _34
REMARK   16  A    between atoms: _34  and  _35
REMARK   17  A    between atoms: _41  and  _43
REMARK   18  A    between atoms: _43  and  _44
REMARK   19  A    between atoms: _43  and  _46
REMARK   20  A    between atoms: _46  and  _47
REMARK   21  A    between atoms: _50  and  _52
REMARK   22  A    between atoms: _52  and  _53
REMARK   23  A    between atoms: _52  and  _55
REMARK   24  A    between atoms: _55  and  _56
REMARK   25  A    between atoms: _58  and  _60
REMARK   26  A    between atoms: _60  and  _61
REMARK   27  A    between atoms: _60  and  _63
REMARK   28  A    between atoms: _63  and  _64
REMARK   29  A    between atoms: _69  and  _71
REMARK   30  A    between atoms: _71  and  _72
REMARK   31  A    between atoms: _71  and  _74
REMARK   32  A    between atoms: _74  and  _75
REMARK   33  A    between atoms: _80  and  _82
REMARK   34  A    between atoms: _82  and  _83
REMARK   35  A    between atoms: _82  and  _85
REMARK   36  A    between atoms: _85  and  _86
REMARK   37  A    between atoms: _89  and  _91
REMARK   38  A    between atoms: _91  and  _92
REMARK   39  A    between atoms: _94  and  _96
REMARK   40  A    between atoms: _96  and  _97
REMARK   41  A    between atoms: _96  and  _99
REMARK   42  A    between atoms: _99  and  _100
REMARK   43  A    between atoms: _106  and  _108
REMARK   44  A    between atoms: _108  and  _109
REMARK   45  A    between atoms: _108  and  _111
REMARK   46  A    between atoms: _111  and  _112
REMARK   47  A    between atoms: _117  and  _118
REMARK   48  A    between atoms: _120  and  _122
REMARK   49  A    between atoms: _122  and  _123
REMARK   50  A    between atoms: _126  and  _128
REMARK   51  A    between atoms: _128  and  _129
REMARK   52  A    between atoms: _132  and  _134
REMARK   53  A    between atoms: _134  and  _135
REMARK   54  A    between atoms: _134  and  _137
REMARK   55  A    between atoms: _137  and  _138
REMARK   56  A    between atoms: _141  and  _143
REMARK   57  A    between atoms: _143  and  _144
REMARK   58  A    between atoms: _143  and  _146
REMARK   59  A    between atoms: _146  and  _147
REMARK   60  A    between atoms: _152  and  _154
REMARK   61  A    between atoms: _154  and  _155
REMARK   62  A    between atoms: _154  and  _157
REMARK   63  A    between atoms: _157  and  _158
REMARK   64  A    between atoms: _158  and  _159
REMARK   65  A    between atoms: _162  and  _164
REMARK   66  A    between atoms: _164  and  _165
REMARK   67  A    between atoms: _164  and  _167
REMARK   68  A    between atoms: _167  and  _168
REMARK   69  A    between atoms: _170  and  _172
REMARK   70  A    between atoms: _172  and  _173
REMARK   71  A    between atoms: _172  and  _175
REMARK   72  A    between atoms: _175  and  _176
REMARK   73  A    between atoms: _179  and  _181
REMARK   74  A    between atoms: _181  and  _182
REMARK   75  A    between atoms: _181  and  _184
REMARK   76  A    between atoms: _184  and  _185
REMARK   77  A    between atoms: _185  and  _186
REMARK   78  A    between atoms: _186  and  _187
REMARK   79  A    between atoms: _187  and  _188
REMARK   80  A    between atoms: _192  and  _194
REMARK   81  A    between atoms: _194  and  _195
REMARK   82  A    between atoms: _194  and  _197
REMARK   83  A    between atoms: _199  and  _201
REMARK   84  A    between atoms: _201  and  _202
REMARK   85  A    between atoms: _201  and  _204
REMARK   86  A    between atoms: _204  and  _205
REMARK   87  A    between atoms: _207  and  _209
REMARK   88  A    between atoms: _209  and  _210
REMARK   89  A    between atoms: _209  and  _212
REMARK   90  A    between atoms: _212  and  _213
REMARK   91  A    between atoms: _217  and  _218
REMARK   92  A    between atoms: _223  and  _225
REMARK   93  A    between atoms: _225  and  _226
REMARK   94  A    between atoms: _225  and  _228
REMARK   95  A    between atoms: _228  and  _229
REMARK   96  A    between atoms: _231  and  _233
REMARK   97  A    between atoms: _233  and  _234
REMARK   98  A    between atoms: _236  and  _238
REMARK   99  A    between atoms: _238  and  _239
REMARK  100  A    between atoms: _238  and  _241
REMARK  101  A    between atoms: _241  and  _242
REMARK  102  A    between atoms: _245  and  _247
REMARK  103  A    between atoms: _247  and  _248
REMARK  104  A    between atoms: _247  and  _250
REMARK  105  A    between atoms: _250  and  _251
REMARK  106  A    between atoms: _254  and  _256
REMARK  107  A    between atoms: _256  and  _257
REMARK  108  A    between atoms: _260  and  _262
REMARK  109  A    between atoms: _262  and  _263
REMARK  110  A    between atoms: _262  and  _265
REMARK  111  A    between atoms: _265  and  _266
REMARK  112  A    between atoms: _271  and  _272
REMARK  113  A    between atoms: _274  and  _276
REMARK  114  A    between atoms: _276  and  _277
REMARK  115  A    between atoms: _276  and  _279
REMARK  116  A    between atoms: _279  and  _280
REMARK  117  A    between atoms: _285  and  _287
REMARK  118  A    between atoms: _287  and  _288
REMARK  119  A    between atoms: _287  and  _290
REMARK  120  A    between atoms: _290  and  _291
REMARK  121  A    between atoms: _291  and  _292
REMARK  122  A    between atoms: _292  and  _293
REMARK  123  A    between atoms: _293  and  _294
REMARK  124  A    between atoms: _298  and  _300
REMARK  125  A    between atoms: _300  and  _301
REMARK  126  A    between atoms: _300  and  _303
REMARK  127  A    between atoms: _303  and  _304
REMARK  128  A    between atoms: _306  and  _308
REMARK  129  A    between atoms: _308  and  _309
REMARK  130  A    between atoms: _308  and  _311
REMARK  131  A    between atoms: _311  and  _312
REMARK  132  A    between atoms: _315  and  _317
REMARK  133  A    between atoms: _317  and  _318
REMARK  134  A    between atoms: _317  and  _320
REMARK  135  A    between atoms: _320  and  _321
REMARK  136  A    between atoms: _324  and  _326
REMARK  137  A    between atoms: _326  and  _327
REMARK  138  A    between atoms: _326  and  _329
REMARK  139  A    between atoms: _329  and  _330
REMARK  140  A    between atoms: _332  and  _334
REMARK  141  A    between atoms: _334  and  _335
REMARK  142  A    between atoms: _334  and  _337
REMARK  143  A    between atoms: _340  and  _342
REMARK  144  A    between atoms: _342  and  _343
REMARK  145  A    between atoms: _342  and  _345
REMARK  146  A    between atoms: _345  and  _346
REMARK  147  A    between atoms: _349  and  _351
REMARK  148  A    between atoms: _351  and  _352
REMARK  149  A    between atoms: _351  and  _354
REMARK  150  A    between atoms: _354  and  _355
REMARK  151  A    between atoms: _360  and  _362
REMARK  152  A    between atoms: _362  and  _363
REMARK  153  A    between atoms: _362  and  _365
REMARK  154  A    between atoms: _365  and  _366
REMARK  155  A    between atoms: _369  and  _371
REMARK  156  A    between atoms: _371  and  _372
REMARK  157  A    between atoms: _371  and  _374
REMARK  158  A    between atoms: _374  and  _375
REMARK  159  A    between atoms: _381  and  _383
REMARK  160  A    between atoms: _383  and  _384
REMARK  161  A    between atoms: _383  and  _386
REMARK  162  A    between atoms: _386  and  _387
REMARK  163  A    between atoms: _387  and  _388
REMARK  164  A    between atoms: _388  and  _389
REMARK  165  A    between atoms: _398  and  _400
REMARK  166  A    between atoms: _400  and  _401
REMARK  167  A    between atoms: _400  and  _403
REMARK  168  A    between atoms: _406  and  _408
REMARK  169  A    between atoms: _408  and  _409
REMARK  170  A    between atoms: _408  and  _411
REMARK  171  A    between atoms: _411  and  _412
REMARK  172  A    between atoms: _414  and  _416
REMARK  173  A    between atoms: _416  and  _417
REMARK  174  A    between atoms: _416  and  _419
REMARK  175  A    between atoms: _419  and  _420
REMARK  176  A    between atoms: _426  and  _428
REMARK  177  A    between atoms: _428  and  _429
REMARK  178  A    between atoms: _432  and  _433
REMARK  179  A    between atoms: _438  and  _440
REMARK  180  A    between atoms: _440  and  _441
REMARK  181  A    between atoms: _440  and  _443
REMARK  182  A    between atoms: _443  and  _444
REMARK  183  A    between atoms: _450  and  _452
REMARK  184  A    between atoms: _452  and  _453
REMARK  185  A    between atoms: _452  and  _455
REMARK  186  A    between atoms: _455  and  _456
REMARK  187  A    between atoms: _462  and  _464
REMARK  188  A    between atoms: _464  and  _465
REMARK  189  A    between atoms: _464  and  _467
REMARK  190  A    between atoms: _467  and  _468
REMARK  191  A    between atoms: _468  and  _469
REMARK  192  A    between atoms: _469  and  _470
REMARK  193  A    between atoms: _479  and  _481
REMARK  194  A    between atoms: _481  and  _482
REMARK  195  A    between atoms: _484  and  _486
REMARK  196  A    between atoms: _486  and  _487
REMARK  197  A    between atoms: _486  and  _489
REMARK  198  A    between atoms: _489  and  _490
REMARK  199  A    between atoms: _493  and  _495
REMARK  200  A    between atoms: _495  and  _496
REMARK  201  A    between atoms: _498  and  _500
REMARK  202  A    between atoms: _500  and  _501
REMARK  203  A    between atoms: _500  and  _503
REMARK  204  A    between atoms: _503  and  _504
REMARK  205  A    between atoms: _504  and  _505
REMARK  206  A    between atoms: _507  and  _509
REMARK  207  A    between atoms: _509  and  _510
REMARK  208  A    between atoms: _513  and  _515
REMARK  209  A    between atoms: _515  and  _516
REMARK  210  A    between atoms: _515  and  _518
REMARK  211  A    between atoms: _518  and  _519
REMARK  212  A    between atoms: _521  and  _523
REMARK  213  A    between atoms: _523  and  _524
REMARK  214  A    between atoms: _523  and  _526
REMARK  215  A    between atoms: _526  and  _527
REMARK  216  A    between atoms: _530  and  _532
REMARK  217  A    between atoms: _532  and  _533
REMARK  218  A    between atoms: _532  and  _535
REMARK  219  A    between atoms: _535  and  _536
REMARK  220  A    between atoms: _541  and  _543
REMARK  221  A    between atoms: _543  and  _544
REMARK  222  A    between atoms: _543  and  _546
REMARK  223  A    between atoms: _546  and  _547
REMARK  224  A    between atoms: _552  and  _554
REMARK  225  A    between atoms: _554  and  _555
REMARK  226  A    between atoms: _554  and  _557
REMARK  227  A    between atoms: _560  and  _562
REMARK  228  A    between atoms: _562  and  _563
REMARK  229  A    between atoms: _562  and  _565
REMARK  230  A    between atoms: _565  and  _566
REMARK  231  A    between atoms: _571  and  _572
REMARK                            x       y       z     vdW  Elec       q    Type
REMARK                         _______ _______ _______ _____ _____    ______ ____
ROOT
ATOM      1  CA  ARG A   1      29.471  15.874  17.760  0.00  0.00    +0.145 C 
ENDROOT
BRANCH   1   2
ATOM      2  C   ARG A   1      29.483  14.522  17.015  0.00  0.00    +0.238 C 
ATOM      3  O   ARG A   1      28.888  13.537  17.472  0.00  0.00    -0.274 OA
ATOM      4  N   VAL A   2      30.167  14.484  15.871  0.00  0.00    -0.298 N 
ATOM      5  H   VAL A   2      30.567  15.370  15.501  0.00  0.00    +0.150 HD
BRANCH   4   6
ATOM      6  CA  VAL A   2      30.379  13.252  15.115  0.00  0.00    +0.137 C 
BRANCH   6   7
ATOM      7  CB  VAL A   2      31.040  13.547  13.743  0.00  0.00    +0.026 C 
ATOM      8  CG2 VAL A   2      31.483  12.259  13.041  0.00  0.00    +0.002 C 
ATOM      9  CG1 VAL A   2      30.084  14.332  12.849  0.00  0.00    +0.002 C 
ENDBRANCH   6   7
BRANCH   6  10
ATOM     10  C   VAL A   2      31.203  12.236  15.922  0.00  0.00    +0.227 C 
ATOM     11  O   VAL A   2      30.865  11.045  15.964  0.00  0.00    -0.286 OA
ENDBRANCH   6  10
ENDBRANCH   4   6
ENDBRANCH   1   2
BRANCH   1  12
ATOM     12  N   ARG A   1      30.811  16.469  17.788  0.00  0.00    -0.238 NA
ATOM     13  H   ARG A   1      30.951  17.405  17.358  0.00  0.00    +0.142 HD
ENDBRANCH   1  12
BRANCH   1  14
ATOM     14  CB  ARG A   1      28.490  16.865  17.119  0.00  0.00    +0.030 C 
BRANCH  14  15
ATOM     15  CG  ARG A   1      27.042  16.410  17.073  0.00  0.00    +0.045 C 
BRANCH  15  16
ATOM     16  CD  ARG A   1      26.113  17.347  16.293  0.00  0.00    +0.174 C 
BRANCH  16  17
ATOM     17  NE  ARG A   1      26.162  18.738  16.741  0.00  0.00    -0.265 N 
ATOM     18  CZ  ARG A   1      25.443  19.247  17.740  0.00  0.00    +0.342 C 
ATOM     19  NH2 ARG A   1      24.591  18.492  18.429  0.00  0.00    -0.292 N 
ATOM     20 HH21 ARG A   1      24.038  18.908  19.206  0.00  0.00    +0.255 HD
ATOM     21 HH22 ARG A   1      24.478  17.486  18.191  0.00  0.00    +0.255 HD
ATOM     22  NH1 ARG A   1      25.573  20.530  18.053  0.00  0.00    -0.292 N 
ATOM     23 HH11 ARG A   1      25.015  20.934  18.832  0.00  0.00    +0.255 HD
ATOM     24 HH12 ARG A   1      26.233  21.131  17.519  0.00  0.00    +0.255 HD
ATOM     25  HE  ARG A   1      26.809  19.380  16.240  0.00  0.00    +0.259 HD
ENDBRANCH  16  17
ENDBRANCH  15  16
ENDBRANCH  14  15
ENDBRANCH   1  14
TORSDOF 9
REMARK  Name = ../refined-set-2016/2i2c/2i2c_pocket.pdb
REMARK  231 active torsions:
REMARK  status: ('A' for Active; 'I' for Inactive)
REMARK    1  A    between atoms: _1  and  _3
REMARK    2  A    between atoms: _3  and  _4
REMARK    3  A    between atoms: _6  and  _8
REMARK    4  A    between atoms: _8  and  _9
REMARK    5  A    between atoms: _8  and  _11
REMARK    6  A    between atoms: _11  and  _12
REMARK    7  A    between atoms: _15  and  _17
REMARK    8  A    between atoms: _17  and  _18
REMARK    9  A    between atoms: _20  and  _22
REMARK   10  A    between atoms: _22  and  _23
REMARK   11  A    between atoms: _22  and  _25
REMARK   12  A    between atoms: _25  and  _26
REMARK   13  A    between atoms: _29  and  _31
REMARK   14  A    between atoms: _31  and  _32
REMARK   15  A    between atoms: _31  and  _34
REMARK   16  A    between atoms: _34  and  _35
REMARK   17  A    between atoms: _41  and  _43
REMARK   18  A    between atoms: _43  and  _44
REMARK   19  A    between atoms: _43  and  _46
REMARK   20  A    between atoms: _46  and  _47
REMARK   21  A    between atoms: _50  and  _52
REMARK   22  A    between atoms: _52  and  _53
REMARK   23  A    between atoms: _52  and  _55
REMARK   24  A    between atoms: _55  and  _56
REMARK   25  A    between atoms: _58  and  _60
REMARK   26  A    between atoms: _60  and  _61
REMARK   27  A    between atoms: _60  and  _63
REMARK   28  A    between atoms: _63  and  _64
REMARK   29  A    between atoms: _69  and  _71
REMARK   30  A    between atoms: _71  and  _72
REMARK   31  A    between atoms: _71  and  _74
REMARK   32  A    between atoms: _74  and  _75
REMARK   33  A    between atoms: _80  and  _82
REMARK   34  A    between atoms: _82  and  _83
REMARK   35  A    between atoms: _82  and  _85
REMARK   36  A    between atoms: _85  and  _86
REMARK   37  A    between atoms: _89  and  _91
REMARK   38  A    between atoms: _91  and  _92
REMARK   39  A    between atoms: _94  and  _96
REMARK   40  A    between atoms: _96  and  _97
REMARK   41  A    between atoms: _96  and  _99
REMARK   42  A    between atoms: _99  and  _100
REMARK   43  A    between atoms: _106  and  _108
REMARK   44  A    between atoms: _108  and  _109
REMARK   45  A    between atoms: _108  and  _111
REMARK   46  A    between atoms: _111  and  _112
REMARK   47  A    between atoms: _117  and  _118
REMARK   48  A    between atoms: _120  and  _122
REMARK   49  A    between atoms: _122  and  _123
REMARK   50  A    between atoms: _126  and  _128
REMARK   51  A    between atoms: _128  and  _129
REMARK   52  A    between atoms: _132  and  _134
REMARK   53  A    between atoms: _134  and  _135
REMARK   54  A    between atoms: _134  and  _137
REMARK   55  A    between atoms: _137  and  _138
REMARK   56  A    between atoms: _141  and  _143
REMARK   57  A    between atoms: _143  and  _144
REMARK   58  A    between atoms: _143  and  _146
REMARK   59  A    between atoms: _146  and  _147
REMARK   60  A    between atoms: _152  and  _154
REMARK   61  A    between atoms: _154  and  _155
REMARK   62  A    between atoms: _154  and  _157
REMARK   63  A    between atoms: _157  and  _158
REMARK   64  A    between atoms: _158  and  _159
REMARK   65  A    between atoms: _162  and  _164
REMARK   66  A    between atoms: _164  and  _165
REMARK   67  A    between atoms: _164  and  _167
REMARK   68  A    between atoms: _167  and  _168
REMARK   69  A    between atoms: _170  and  _172
REMARK   70  A    between atoms: _172  and  _173
REMARK   71  A    between atoms: _172  and  _175
REMARK   72  A    between atoms: _175  and  _176
REMARK   73  A    between atoms: _179  and  _181
REMARK   74  A    between atoms: _181  and  _182
REMARK   75  A    between atoms: _181  and  _184
REMARK   76  A    between atoms: _184  and  _185
REMARK   77  A    between atoms: _185  and  _186
REMARK   78  A    between atoms: _186  and  _187
REMARK   79  A    between atoms: _187  and  _188
REMARK   80  A    between atoms: _192  and  _194
REMARK   81  A    between atoms: _194  and  _195
REMARK   82  A    between atoms: _194  and  _197
REMARK   83  A    between atoms: _199  and  _201
REMARK   84  A    between atoms: _201  and  _202
REMARK   85  A    between atoms: _201  and  _204
REMARK   86  A    between atoms: _204  and  _205
REMARK   87  A    between atoms: _207  and  _209
REMARK   88  A    between atoms: _209  and  _210
REMARK   89  A    between atoms: _209  and  _212
REMARK   90  A    between atoms: _212  and  _213
REMARK   91  A    between atoms: _217  and  _218
REMARK   92  A    between atoms: _223  and  _225
REMARK   93  A    between atoms: _225  and  _226
REMARK   94  A    between atoms: _225  and  _228
REMARK   95  A    between atoms: _228  and  _229
REMARK   96  A    between atoms: _231  and  _233
REMARK   97  A    between atoms: _233  and  _234
REMARK   98  A    between atoms: _236  and  _238
REMARK   99  A    between atoms: _238  and  _239
REMARK  100  A    between atoms: _238  and  _241
REMARK  101  A    between atoms: _241  and  _242
REMARK  102  A    between atoms: _245  and  _247
REMARK  103  A    between atoms: _247  and  _248
REMARK  104  A    between atoms: _247  and  _250
REMARK  105  A    between atoms: _250  and  _251
REMARK  106  A    between atoms: _254  and  _256
REMARK  107  A    between atoms: _256  and  _257
REMARK  108  A    between atoms: _260  and  _262
REMARK  109  A    between atoms: _262  and  _263
REMARK  110  A    between atoms: _262  and  _265
REMARK  111  A    between atoms: _265  and  _266
REMARK  112  A    between atoms: _271  and  _272
REMARK  113  A    between atoms: _274  and  _276
REMARK  114  A    between atoms: _276  and  _277
REMARK  115  A    between atoms: _276  and  _279
REMARK  116  A    between atoms: _279  and  _280
REMARK  117  A    between atoms: _285  and  _287
REMARK  118  A    between atoms: _287  and  _288
REMARK  119  A    between atoms: _287  and  _290
REMARK  120  A    between atoms: _290  and  _291
REMARK  121  A    between atoms: _291  and  _292
REMARK  122  A    between atoms: _292  and  _293
REMARK  123  A    between atoms: _293  and  _294
REMARK  124  A    between atoms: _298  and  _300
REMARK  125  A    between atoms: _300  and  _301
REMARK  126  A    between atoms: _300  and  _303
REMARK  127  A    between atoms: _303  and  _304
REMARK  128  A    between atoms: _306  and  _308
REMARK  129  A    between atoms: _308  and  _309
REMARK  130  A    between atoms: _308  and  _311
REMARK  131  A    between atoms: _311  and  _312
REMARK  132  A    between atoms: _315  and  _317
REMARK  133  A    between atoms: _317  and  _318
REMARK  134  A    between atoms: _317  and  _320
REMARK  135  A    between atoms: _320  and  _321
REMARK  136  A    between atoms: _324  and  _326
REMARK  137  A    between atoms: _326  and  _327
REMARK  138  A    between atoms: _326  and  _329
REMARK  139  A    between atoms: _329  and  _330
REMARK  140  A    between atoms: _332  and  _334
REMARK  141  A    between atoms: _334  and  _335
REMARK  142  A    between atoms: _334  and  _337
REMARK  143  A    between atoms: _340  and  _342
REMARK  144  A    between atoms: _342  and  _343
REMARK  145  A    between atoms: _342  and  _345
REMARK  146  A    between atoms: _345  and  _346
REMARK  147  A    between atoms: _349  and  _351
REMARK  148  A    between atoms: _351  and  _352
REMARK  149  A    between atoms: _351  and  _354
REMARK  150  A    between atoms: _354  and  _355
REMARK  151  A    between atoms: _360  and  _362
REMARK  152  A    between atoms: _362  and  _363
REMARK  153  A    between atoms: _362  and  _365
REMARK  154  A    between atoms: _365  and  _366
REMARK  155  A    between atoms: _369  and  _371
REMARK  156  A    between atoms: _371  and  _372
REMARK  157  A    between atoms: _371  and  _374
REMARK  158  A    between atoms: _374  and  _375
REMARK  159  A    between atoms: _381  and  _383
REMARK  160  A    between atoms: _383  and  _384
REMARK  161  A    between atoms: _383  and  _386
REMARK  162  A    between atoms: _386  and  _387
REMARK  163  A    between atoms: _387  and  _388
REMARK  164  A    between atoms: _388  and  _389
REMARK  165  A    between atoms: _398  and  _400
REMARK  166  A    between atoms: _400  and  _401
REMARK  167  A    between atoms: _400  and  _403
REMARK  168  A    between atoms: _406  and  _408
REMARK  169  A    between atoms: _408  and  _409
REMARK  170  A    between atoms: _408  and  _411
REMARK  171  A    between atoms: _411  and  _412
REMARK  172  A    between atoms: _414  and  _416
REMARK  173  A    between atoms: _416  and  _417
REMARK  174  A    between atoms: _416  and  _419
REMARK  175  A    between atoms: _419  and  _420
REMARK  176  A    between atoms: _426  and  _428
REMARK  177  A    between atoms: _428  and  _429
REMARK  178  A    between atoms: _432  and  _433
REMARK  179  A    between atoms: _438  and  _440
REMARK  180  A    between atoms: _440  and  _441
REMARK  181  A    between atoms: _440  and  _443
REMARK  182  A    between atoms: _443  and  _444
REMARK  183  A    between atoms: _450  and  _452
REMARK  184  A    between atoms: _452  and  _453
REMARK  185  A    between atoms: _452  and  _455
REMARK  186  A    between atoms: _455  and  _456
REMARK  187  A    between atoms: _462  and  _464
REMARK  188  A    between atoms: _464  and  _465
REMARK  189  A    between atoms: _464  and  _467
REMARK  190  A    between atoms: _467  and  _468
REMARK  191  A    between atoms: _468  and  _469
REMARK  192  A    between atoms: _469  and  _470
REMARK  193  A    between atoms: _479  and  _481
REMARK  194  A    between atoms: _481  and  _482
REMARK  195  A    between atoms: _484  and  _486
REMARK  196  A    between atoms: _486  and  _487
REMARK  197  A    between atoms: _486  and  _489
REMARK  198  A    between atoms: _489  and  _490
REMARK  199  A    between atoms: _493  and  _495
REMARK  200  A    between atoms: _495  and  _496
REMARK  201  A    between atoms: _498  and  _500
REMARK  202  A    between atoms: _500  and  _501
REMARK  203  A    between atoms: _500  and  _503
REMARK  204  A    between atoms: _503  and  _504
REMARK  205  A    between atoms: _504  and  _505
REMARK  206  A    between atoms: _507  and  _509
REMARK  207  A    between atoms: _509  and  _510
REMARK  208  A    between atoms: _513  and  _515
REMARK  209  A    between atoms: _515  and  _516
REMARK  210  A    between atoms: _515  and  _518
REMARK  211  A    between atoms: _518  and  _519
REMARK  212  A    between atoms: _521  and  _523
REMARK  213  A    between atoms: _523  and  _524
REMARK  214  A    between atoms: _523  and  _526
REMARK  215  A    between atoms: _526  and  _527
REMARK  216  A    between atoms: _530  and  _532
REMARK  217  A    between atoms: _532  and  _533
REMARK  218  A    between atoms: _532  and  _535
REMARK  219  A    between atoms: _535  and  _536
REMARK  220  A    between atoms: _541  and  _543
REMARK  221  A    between atoms: _543  and  _544
REMARK  222  A    between atoms: _543  and  _546
REMARK  223  A    between atoms: _546  and  _547
REMARK  224  A    between atoms: _552  and  _554
REMARK  225  A    between atoms: _554  and  _555
REMARK  226  A    between atoms: _554  and  _557
REMARK  227  A    between atoms: _560  and  _562
REMARK  228  A    between atoms: _562  and  _563
REMARK  229  A    between atoms: _562  and  _565
REMARK  230  A    between atoms: _565  and  _566
REMARK  231  A    between atoms: _571  and  _572
REMARK                            x       y       z     vdW  Elec       q    Type
REMARK                         _______ _______ _______ _____ _____    ______ ____
ROOT
ATOM      1  C   SER A   1      28.407   8.600  17.517  0.00  0.00    +0.241 C 
ATOM      2  O   SER A   1      27.611   7.659  17.509  0.00  0.00    -0.274 OA
ATOM      3  N   PHE A   2      29.630   8.527  16.983  0.00  0.00    -0.298 N 
ATOM      4  H   PHE A   2      30.287   9.323  17.110  0.00  0.00    +0.150 HD
ENDROOT
BRANCH   1   5
ATOM      5  CA  SER A   1      27.994   9.927  18.159  0.00  0.00    +0.174 C 
BRANCH   5   6
ATOM      6  N   SER A   1      29.093  10.746  18.681  0.00  0.00    -0.236 NA
ATOM      7  H   SER A   1      29.514  11.473  18.068  0.00  0.00    +0.142 HD
ENDBRANCH   5   6
BRANCH   5   8
ATOM      8  CB  SER A   1      27.157  10.728  17.161  0.00  0.00    +0.163 C 
BRANCH   8   9
ATOM      9  OG  SER A   1      26.310  11.640  17.833  0.00  0.00    -0.380 OA
ATOM     10  H   SER A   1      26.860  12.268  18.366  0.00  0.00    +0.211 HD
ENDBRANCH   8   9
ENDBRANCH   5   8
ENDBRANCH   1   5
BRANCH   3  11
ATOM     11  CA  PHE A   2      30.070   7.345  16.218  0.00  0.00    +0.141 C 
BRANCH  11  12
ATOM     12  C   PHE A   2      31.318   6.634  16.744  0.00  0.00    +0.227 C 
ATOM     13  O   PHE A   2      31.502   5.436  16.492  0.00  0.00    -0.286 OA
ENDBRANCH  11  12
BRANCH  11  14
ATOM     14  CB  PHE A   2      30.280   7.708  14.741  0.00  0.00    +0.054 C 
BRANCH  14  15
ATOM     15  CG  PHE A   2      29.026   8.140  14.041  0.00  0.00    -0.020 A 
ATOM     16  CD2 PHE A   2      28.752   9.493  13.850  0.00  0.00    -0.004 A 
ATOM     17  CE2 PHE A   2      27.588   9.894  13.205  0.00  0.00    -0.000 A 
ATOM     18  CZ  PHE A   2      26.675   8.945  12.762  0.00  0.00    -0.000 A 
ATOM     19  CE1 PHE A   2      26.936   7.590  12.961  0.00  0.00    -0.000 A 
ATOM     20  CD1 PHE A   2      28.103   7.199  13.595  0.00  0.00    -0.004 A 
ENDBRANCH  14  15
ENDBRANCH  11  14
ENDBRANCH   3  11
TORSDOF 8
REMARK  Name = ../refined-set-2016/2i2c/2i2c_pocket.pdb
REMARK  231 active torsions:
REMARK  status: ('A' for Active; 'I' for Inactive)
REMARK    1  A    between atoms: _1  and  _3
REMARK    2  A    between atoms: _3  and  _4
REMARK    3  A    between atoms: _6  and  _8
REMARK    4  A    between atoms: _8  and  _9
REMARK    5  A    between atoms: _8  and  _11
REMARK    6  A    between atoms: _11  and  _12
REMARK    7  A    between atoms: _15  and  _17
REMARK    8  A    between atoms: _17  and  _18
REMARK    9  A    between atoms: _20  and  _22
REMARK   10  A    between atoms: _22  and  _23
REMARK   11  A    between atoms: _22  and  _25
REMARK   12  A    between atoms: _25  and  _26
REMARK   13  A    between atoms: _29  and  _31
REMARK   14  A    between atoms: _31  and  _32
REMARK   15  A    between atoms: _31  and  _34
REMARK   16  A    between atoms: _34  and  _35
REMARK   17  A    between atoms: _41  and  _43
REMARK   18  A    between atoms: _43  and  _44
REMARK   19  A    between atoms: _43  and  _46
REMARK   20  A    between atoms: _46  and  _47
REMARK   21  A    between atoms: _50  and  _52
REMARK   22  A    between atoms: _52  and  _53
REMARK   23  A    between atoms: _52  and  _55
REMARK   24  A    between atoms: _55  and  _56
REMARK   25  A    between atoms: _58  and  _60
REMARK   26  A    between atoms: _60  and  _61
REMARK   27  A    between atoms: _60  and  _63
REMARK   28  A    between atoms: _63  and  _64
REMARK   29  A    between atoms: _69  and  _71
REMARK   30  A    between atoms: _71  and  _72
REMARK   31  A    between atoms: _71  and  _74
REMARK   32  A    between atoms: _74  and  _75
REMARK   33  A    between atoms: _80  and  _82
REMARK   34  A    between atoms: _82  and  _83
REMARK   35  A    between atoms: _82  and  _85
REMARK   36  A    between atoms: _85  and  _86
REMARK   37  A    between atoms: _89  and  _91
REMARK   38  A    between atoms: _91  and  _92
REMARK   39  A    between atoms: _94  and  _96
REMARK   40  A    between atoms: _96  and  _97
REMARK   41  A    between atoms: _96  and  _99
REMARK   42  A    between atoms: _99  and  _100
REMARK   43  A    between atoms: _106  and  _108
REMARK   44  A    between atoms: _108  and  _109
REMARK   45  A    between atoms: _108  and  _111
REMARK   46  A    between atoms: _111  and  _112
REMARK   47  A    between atoms: _117  and  _118
REMARK   48  A    between atoms: _120  and  _122
REMARK   49  A    between atoms: _122  and  _123
REMARK   50  A    between atoms: _126  and  _128
REMARK   51  A    between atoms: _128  and  _129
REMARK   52  A    between atoms: _132  and  _134
REMARK   53  A    between atoms: _134  and  _135
REMARK   54  A    between atoms: _134  and  _137
REMARK   55  A    between atoms: _137  and  _138
REMARK   56  A    between atoms: _141  and  _143
REMARK   57  A    between atoms: _143  and  _144
REMARK   58  A    between atoms: _143  and  _146
REMARK   59  A    between atoms: _146  and  _147
REMARK   60  A    between atoms: _152  and  _154
REMARK   61  A    between atoms: _154  and  _155
REMARK   62  A    between atoms: _154  and  _157
REMARK   63  A    between atoms: _157  and  _158
REMARK   64  A    between atoms: _158  and  _159
REMARK   65  A    between atoms: _162  and  _164
REMARK   66  A    between atoms: _164  and  _165
REMARK   67  A    between atoms: _164  and  _167
REMARK   68  A    between atoms: _167  and  _168
REMARK   69  A    between atoms: _170  and  _172
REMARK   70  A    between atoms: _172  and  _173
REMARK   71  A    between atoms: _172  and  _175
REMARK   72  A    between atoms: _175  and  _176
REMARK   73  A    between atoms: _179  and  _181
REMARK   74  A    between atoms: _181  and  _182
REMARK   75  A    between atoms: _181  and  _184
REMARK   76  A    between atoms: _184  and  _185
REMARK   77  A    between atoms: _185  and  _186
REMARK   78  A    between atoms: _186  and  _187
REMARK   79  A    between atoms: _187  and  _188
REMARK   80  A    between atoms: _192  and  _194
REMARK   81  A    between atoms: _194  and  _195
REMARK   82  A    between atoms: _194  and  _197
REMARK   83  A    between atoms: _199  and  _201
REMARK   84  A    between atoms: _201  and  _202
REMARK   85  A    between atoms: _201  and  _204
REMARK   86  A    between atoms: _204  and  _205
REMARK   87  A    between atoms: _207  and  _209
REMARK   88  A    between atoms: _209  and  _210
REMARK   89  A    between atoms: _209  and  _212
REMARK   90  A    between atoms: _212  and  _213
REMARK   91  A    between atoms: _217  and  _218
REMARK   92  A    between atoms: _223  and  _225
REMARK   93  A    between atoms: _225  and  _226
REMARK   94  A    between atoms: _225  and  _228
REMARK   95  A    between atoms: _228  and  _229
REMARK   96  A    between atoms: _231  and  _233
REMARK   97  A    between atoms: _233  and  _234
REMARK   98  A    between atoms: _236  and  _238
REMARK   99  A    between atoms: _238  and  _239
REMARK  100  A    between atoms: _238  and  _241
REMARK  101  A    between atoms: _241  and  _242
REMARK  102  A    between atoms: _245  and  _247
REMARK  103  A    between atoms: _247  and  _248
REMARK  104  A    between atoms: _247  and  _250
REMARK  105  A    between atoms: _250  and  _251
REMARK  106  A    between atoms: _254  and  _256
REMARK  107  A    between atoms: _256  and  _257
REMARK  108  A    between atoms: _260  and  _262
REMARK  109  A    between atoms: _262  and  _263
REMARK  110  A    between atoms: _262  and  _265
REMARK  111  A    between atoms: _265  and  _266
REMARK  112  A    between atoms: _271  and  _272
REMARK  113  A    between atoms: _274  and  _276
REMARK  114  A    between atoms: _276  and  _277
REMARK  115  A    between atoms: _276  and  _279
REMARK  116  A    between atoms: _279  and  _280
REMARK  117  A    between atoms: _285  and  _287
REMARK  118  A    between atoms: _287  and  _288
REMARK  119  A    between atoms: _287  and  _290
REMARK  120  A    between atoms: _290  and  _291
REMARK  121  A    between atoms: _291  and  _292
REMARK  122  A    between atoms: _292  and  _293
REMARK  123  A    between atoms: _293  and  _294
REMARK  124  A    between atoms: _298  and  _300
REMARK  125  A    between atoms: _300  and  _301
REMARK  126  A    between atoms: _300  and  _303
REMARK  127  A    between atoms: _303  and  _304
REMARK  128  A    between atoms: _306  and  _308
REMARK  129  A    between atoms: _308  and  _309
REMARK  130  A    between atoms: _308  and  _311
REMARK  131  A    between atoms: _311  and  _312
REMARK  132  A    between atoms: _315  and  _317
REMARK  133  A    between atoms: _317  and  _318
REMARK  134  A    between atoms: _317  and  _320
REMARK  135  A    between atoms: _320  and  _321
REMARK  136  A    between atoms: _324  and  _326
REMARK  137  A    between atoms: _326  and  _327
REMARK  138  A    between atoms: _326  and  _329
REMARK  139  A    between atoms: _329  and  _330
REMARK  140  A    between atoms: _332  and  _334
REMARK  141  A    between atoms: _334  and  _335
REMARK  142  A    between atoms: _334  and  _337
REMARK  143  A    between atoms: _340  and  _342
REMARK  144  A    between atoms: _342  and  _343
REMARK  145  A    between atoms: _342  and  _345
REMARK  146  A    between atoms: _345  and  _346
REMARK  147  A    between atoms: _349  and  _351
REMARK  148  A    between atoms: _351  and  _352
REMARK  149  A    between atoms: _351  and  _354
REMARK  150  A    between atoms: _354  and  _355
REMARK  151  A    between atoms: _360  and  _362
REMARK  152  A    between atoms: _362  and  _363
REMARK  153  A    between atoms: _362  and  _365
REMARK  154  A    between atoms: _365  and  _366
REMARK  155  A    between atoms: _369  and  _371
REMARK  156  A    between atoms: _371  and  _372
REMARK  157  A    between atoms: _371  and  _374
REMARK  158  A    between atoms: _374  and  _375
REMARK  159  A    between atoms: _381  and  _383
REMARK  160  A    between atoms: _383  and  _384
REMARK  161  A    between atoms: _383  and  _386
REMARK  162  A    between atoms: _386  and  _387
REMARK  163  A    between atoms: _387  and  _388
REMARK  164  A    between atoms: _388  and  _389
REMARK  165  A    between atoms: _398  and  _400
REMARK  166  A    between atoms: _400  and  _401
REMARK  167  A    between atoms: _400  and  _403
REMARK  168  A    between atoms: _406  and  _408
REMARK  169  A    between atoms: _408  and  _409
REMARK  170  A    between atoms: _408  and  _411
REMARK  171  A    between atoms: _411  and  _412
REMARK  172  A    between atoms: _414  and  _416
REMARK  173  A    between atoms: _416  and  _417
REMARK  174  A    between atoms: _416  and  _419
REMARK  175  A    between atoms: _419  and  _420
REMARK  176  A    between atoms: _426  and  _428
REMARK  177  A    between atoms: _428  and  _429
REMARK  178  A    between atoms: _432  and  _433
REMARK  179  A    between atoms: _438  and  _440
REMARK  180  A    between atoms: _440  and  _441
REMARK  181  A    between atoms: _440  and  _443
REMARK  182  A    between atoms: _443  and  _444
REMARK  183  A    between atoms: _450  and  _452
REMARK  184  A    between atoms: _452  and  _453
REMARK  185  A    between atoms: _452  and  _455
REMARK  186  A    between atoms: _455  and  _456
REMARK  187  A    between atoms: _462  and  _464
REMARK  188  A    between atoms: _464  and  _465
REMARK  189  A    between atoms: _464  and  _467
REMARK  190  A    between atoms: _467  and  _468
REMARK  191  A    between atoms: _468  and  _469
REMARK  192  A    between atoms: _469  and  _470
REMARK  193  A    between atoms: _479  and  _481
REMARK  194  A    between atoms: _481  and  _482
REMARK  195  A    between atoms: _484  and  _486
REMARK  196  A    between atoms: _486  and  _487
REMARK  197  A    between atoms: _486  and  _489
REMARK  198  A    between atoms: _489  and  _490
REMARK  199  A    between atoms: _493  and  _495
REMARK  200  A    between atoms: _495  and  _496
REMARK  201  A    between atoms: _498  and  _500
REMARK  202  A    between atoms: _500  and  _501
REMARK  203  A    between atoms: _500  and  _503
REMARK  204  A    between atoms: _503  and  _504
REMARK  205  A    between atoms: _504  and  _505
REMARK  206  A    between atoms: _507  and  _509
REMARK  207  A    between atoms: _509  and  _510
REMARK  208  A    between atoms: _513  and  _515
REMARK  209  A    between atoms: _515  and  _516
REMARK  210  A    between atoms: _515  and  _518
REMARK  211  A    between atoms: _518  and  _519
REMARK  212  A    between atoms: _521  and  _523
REMARK  213  A    between atoms: _523  and  _524
REMARK  214  A    between atoms: _523  and  _526
REMARK  215  A    between atoms: _526  and  _527
REMARK  216  A    between atoms: _530  and  _532
REMARK  217  A    between atoms: _532  and  _533
REMARK  218  A    between atoms: _532  and  _535
REMARK  219  A    between atoms: _535  and  _536
REMARK  220  A    between atoms: _541  and  _543
REMARK  221  A    between atoms: _543  and  _544
REMARK  222  A    between atoms: _543  and  _546
REMARK  223  A    between atoms: _546  and  _547
REMARK  224  A    between atoms: _552  and  _554
REMARK  225  A    between atoms: _554  and  _555
REMARK  226  A    between atoms: _554  and  _557
REMARK  227  A    between atoms: _560  and  _562
REMARK  228  A    between atoms: _562  and  _563
REMARK  229  A    between atoms: _562  and  _565
REMARK  230  A    between atoms: _565  and  _566
REMARK  231  A    between atoms: _571  and  _572
REMARK                            x       y       z     vdW  Elec       q    Type
REMARK                         _______ _______ _______ _____ _____    ______ ____
ROOT
ATOM      1  C   PRO A   2      11.735  -0.109  10.695  0.00  0.00    +0.241 C 
ATOM      2  O   PRO A   2      10.908  -0.810  11.298  0.00  0.00    -0.273 OA
ATOM      3  N   PHE A   3      12.790  -0.610  10.056  0.00  0.00    -0.298 N 
ATOM      4  H   PHE A   3      13.437   0.039   9.565  0.00  0.00    +0.150 HD
ENDROOT
BRANCH   1  10
ATOM      5  C   GLY A   1       9.604   1.424   9.174  0.00  0.00    +0.243 C 
ATOM      6  N   PRO A   2      10.151   1.706  10.365  0.00  0.00    -0.272 N 
ATOM      7  CD  PRO A   2       9.485   2.317  11.526  0.00  0.00    +0.094 C 
ATOM      8  CG  PRO A   2      10.625   2.879  12.304  0.00  0.00    +0.024 C 
ATOM      9  CB  PRO A   2      11.800   2.014  12.031  0.00  0.00    +0.031 C 
ATOM     10  CA  PRO A   2      11.559   1.410  10.637  0.00  0.00    +0.152 C 
ATOM     11  O   GLY A   1      10.286   1.264   8.152  0.00  0.00    -0.273 OA
BRANCH   5  12
ATOM     12  CA  GLY A   1       8.078   1.254   9.127  0.00  0.00    +0.170 C 
BRANCH  12  13
ATOM     13  N   GLY A   1       7.215   2.222   8.396  0.00  0.00    -0.236 NA
ATOM     14  H   GLY A   1       7.085   3.170   8.803  0.00  0.00    +0.142 HD
ENDBRANCH  12  13
ENDBRANCH   5  12
ENDBRANCH   1  10
BRANCH   3  15
ATOM     15  CA  PHE A   3      13.064  -2.037  10.024  0.00  0.00    +0.141 C 
BRANCH  15  16
ATOM     16  C   PHE A   3      14.069  -2.392  11.114  0.00  0.00    +0.227 C 
ATOM     17  O   PHE A   3      15.193  -1.902  11.104  0.00  0.00    -0.286 OA
ENDBRANCH  15  16
BRANCH  15  18
ATOM     18  CB  PHE A   3      13.582  -2.446   8.635  0.00  0.00    +0.054 C 
BRANCH  18  19
ATOM     19  CG  PHE A   3      13.939  -3.901   8.519  0.00  0.00    -0.020 A 
ATOM     20  CD2 PHE A   3      15.271  -4.302   8.513  0.00  0.00    -0.004 A 
ATOM     21  CE2 PHE A   3      15.613  -5.656   8.407  0.00  0.00    -0.000 A 
ATOM     22  CZ  PHE A   3      14.608  -6.612   8.294  0.00  0.00    -0.000 A 
ATOM     23  CE1 PHE A   3      13.274  -6.218   8.304  0.00  0.00    -0.000 A 
ATOM     24  CD1 PHE A   3      12.946  -4.871   8.414  0.00  0.00    -0.004 A 
ENDBRANCH  18  19
ENDBRANCH  15  18
ENDBRANCH   3  15
TORSDOF 7
REMARK  Name = ../refined-set-2016/2i2c/2i2c_pocket.pdb
REMARK  231 active torsions:
REMARK  status: ('A' for Active; 'I' for Inactive)
REMARK    1  A    between atoms: _1  and  _3
REMARK    2  A    between atoms: _3  and  _4
REMARK    3  A    between atoms: _6  and  _8
REMARK    4  A    between atoms: _8  and  _9
REMARK    5  A    between atoms: _8  and  _11
REMARK    6  A    between atoms: _11  and  _12
REMARK    7  A    between atoms: _15  and  _17
REMARK    8  A    between atoms: _17  and  _18
REMARK    9  A    between atoms: _20  and  _22
REMARK   10  A    between atoms: _22  and  _23
REMARK   11  A    between atoms: _22  and  _25
REMARK   12  A    between atoms: _25  and  _26
REMARK   13  A    between atoms: _29  and  _31
REMARK   14  A    between atoms: _31  and  _32
REMARK   15  A    between atoms: _31  and  _34
REMARK   16  A    between atoms: _34  and  _35
REMARK   17  A    between atoms: _41  and  _43
REMARK   18  A    between atoms: _43  and  _44
REMARK   19  A    between atoms: _43  and  _46
REMARK   20  A    between atoms: _46  and  _47
REMARK   21  A    between atoms: _50  and  _52
REMARK   22  A    between atoms: _52  and  _53
REMARK   23  A    between atoms: _52  and  _55
REMARK   24  A    between atoms: _55  and  _56
REMARK   25  A    between atoms: _58  and  _60
REMARK   26  A    between atoms: _60  and  _61
REMARK   27  A    between atoms: _60  and  _63
REMARK   28  A    between atoms: _63  and  _64
REMARK   29  A    between atoms: _69  and  _71
REMARK   30  A    between atoms: _71  and  _72
REMARK   31  A    between atoms: _71  and  _74
REMARK   32  A    between atoms: _74  and  _75
REMARK   33  A    between atoms: _80  and  _82
REMARK   34  A    between atoms: _82  and  _83
REMARK   35  A    between atoms: _82  and  _85
REMARK   36  A    between atoms: _85  and  _86
REMARK   37  A    between atoms: _89  and  _91
REMARK   38  A    between atoms: _91  and  _92
REMARK   39  A    between atoms: _94  and  _96
REMARK   40  A    between atoms: _96  and  _97
REMARK   41  A    between atoms: _96  and  _99
REMARK   42  A    between atoms: _99  and  _100
REMARK   43  A    between atoms: _106  and  _108
REMARK   44  A    between atoms: _108  and  _109
REMARK   45  A    between atoms: _108  and  _111
REMARK   46  A    between atoms: _111  and  _112
REMARK   47  A    between atoms: _117  and  _118
REMARK   48  A    between atoms: _120  and  _122
REMARK   49  A    between atoms: _122  and  _123
REMARK   50  A    between atoms: _126  and  _128
REMARK   51  A    between atoms: _128  and  _129
REMARK   52  A    between atoms: _132  and  _134
REMARK   53  A    between atoms: _134  and  _135
REMARK   54  A    between atoms: _134  and  _137
REMARK   55  A    between atoms: _137  and  _138
REMARK   56  A    between atoms: _141  and  _143
REMARK   57  A    between atoms: _143  and  _144
REMARK   58  A    between atoms: _143  and  _146
REMARK   59  A    between atoms: _146  and  _147
REMARK   60  A    between atoms: _152  and  _154
REMARK   61  A    between atoms: _154  and  _155
REMARK   62  A    between atoms: _154  and  _157
REMARK   63  A    between atoms: _157  and  _158
REMARK   64  A    between atoms: _158  and  _159
REMARK   65  A    between atoms: _162  and  _164
REMARK   66  A    between atoms: _164  and  _165
REMARK   67  A    between atoms: _164  and  _167
REMARK   68  A    between atoms: _167  and  _168
REMARK   69  A    between atoms: _170  and  _172
REMARK   70  A    between atoms: _172  and  _173
REMARK   71  A    between atoms: _172  and  _175
REMARK   72  A    between atoms: _175  and  _176
REMARK   73  A    between atoms: _179  and  _181
REMARK   74  A    between atoms: _181  and  _182
REMARK   75  A    between atoms: _181  and  _184
REMARK   76  A    between atoms: _184  and  _185
REMARK   77  A    between atoms: _185  and  _186
REMARK   78  A    between atoms: _186  and  _187
REMARK   79  A    between atoms: _187  and  _188
REMARK   80  A    between atoms: _192  and  _194
REMARK   81  A    between atoms: _194  and  _195
REMARK   82  A    between atoms: _194  and  _197
REMARK   83  A    between atoms: _199  and  _201
REMARK   84  A    between atoms: _201  and  _202
REMARK   85  A    between atoms: _201  and  _204
REMARK   86  A    between atoms: _204  and  _205
REMARK   87  A    between atoms: _207  and  _209
REMARK   88  A    between atoms: _209  and  _210
REMARK   89  A    between atoms: _209  and  _212
REMARK   90  A    between atoms: _212  and  _213
REMARK   91  A    between atoms: _217  and  _218
REMARK   92  A    between atoms: _223  and  _225
REMARK   93  A    between atoms: _225  and  _226
REMARK   94  A    between atoms: _225  and  _228
REMARK   95  A    between atoms: _228  and  _229
REMARK   96  A    between atoms: _231  and  _233
REMARK   97  A    between atoms: _233  and  _234
REMARK   98  A    between atoms: _236  and  _238
REMARK   99  A    between atoms: _238  and  _239
REMARK  100  A    between atoms: _238  and  _241
REMARK  101  A    between atoms: _241  and  _242
REMARK  102  A    between atoms: _245  and  _247
REMARK  103  A    between atoms: _247  and  _248
REMARK  104  A    between atoms: _247  and  _250
REMARK  105  A    between atoms: _250  and  _251
REMARK  106  A    between atoms: _254  and  _256
REMARK  107  A    between atoms: _256  and  _257
REMARK  108  A    between atoms: _260  and  _262
REMARK  109  A    between atoms: _262  and  _263
REMARK  110  A    between atoms: _262  and  _265
REMARK  111  A    between atoms: _265  and  _266
REMARK  112  A    between atoms: _271  and  _272
REMARK  113  A    between atoms: _274  and  _276
REMARK  114  A    between atoms: _276  and  _277
REMARK  115  A    between atoms: _276  and  _279
REMARK  116  A    between atoms: _279  and  _280
REMARK  117  A    between atoms: _285  and  _287
REMARK  118  A    between atoms: _287  and  _288
REMARK  119  A    between atoms: _287  and  _290
REMARK  120  A    between atoms: _290  and  _291
REMARK  121  A    between atoms: _291  and  _292
REMARK  122  A    between atoms: _292  and  _293
REMARK  123  A    between atoms: _293  and  _294
REMARK  124  A    between atoms: _298  and  _300
REMARK  125  A    between atoms: _300  and  _301
REMARK  126  A    between atoms: _300  and  _303
REMARK  127  A    between atoms: _303  and  _304
REMARK  128  A    between atoms: _306  and  _308
REMARK  129  A    between atoms: _308  and  _309
REMARK  130  A    between atoms: _308  and  _311
REMARK  131  A    between atoms: _311  and  _312
REMARK  132  A    between atoms: _315  and  _317
REMARK  133  A    between atoms: _317  and  _318
REMARK  134  A    between atoms: _317  and  _320
REMARK  135  A    between atoms: _320  and  _321
REMARK  136  A    between atoms: _324  and  _326
REMARK  137  A    between atoms: _326  and  _327
REMARK  138  A    between atoms: _326  and  _329
REMARK  139  A    between atoms: _329  and  _330
REMARK  140  A    between atoms: _332  and  _334
REMARK  141  A    between atoms: _334  and  _335
REMARK  142  A    between atoms: _334  and  _337
REMARK  143  A    between atoms: _340  and  _342
REMARK  144  A    between atoms: _342  and  _343
REMARK  145  A    between atoms: _342  and  _345
REMARK  146  A    between atoms: _345  and  _346
REMARK  147  A    between atoms: _349  and  _351
REMARK  148  A    between atoms: _351  and  _352
REMARK  149  A    between atoms: _351  and  _354
REMARK  150  A    between atoms: _354  and  _355
REMARK  151  A    between atoms: _360  and  _362
REMARK  152  A    between atoms: _362  and  _363
REMARK  153  A    between atoms: _362  and  _365
REMARK  154  A    between atoms: _365  and  _366
REMARK  155  A    between atoms: _369  and  _371
REMARK  156  A    between atoms: _371  and  _372
REMARK  157  A    between atoms: _371  and  _374
REMARK  158  A    between atoms: _374  and  _375
REMARK  159  A    between atoms: _381  and  _383
REMARK  160  A    between atoms: _383  and  _384
REMARK  161  A    between atoms: _383  and  _386
REMARK  162  A    between atoms: _386  and  _387
REMARK  163  A    between atoms: _387  and  _388
REMARK  164  A    between atoms: _388  and  _389
REMARK  165  A    between atoms: _398  and  _400
REMARK  166  A    between atoms: _400  and  _401
REMARK  167  A    between atoms: _400  and  _403
REMARK  168  A    between atoms: _406  and  _408
REMARK  169  A    between atoms: _408  and  _409
REMARK  170  A    between atoms: _408  and  _411
REMARK  171  A    between atoms: _411  and  _412
REMARK  172  A    between atoms: _414  and  _416
REMARK  173  A    between atoms: _416  and  _417
REMARK  174  A    between atoms: _416  and  _419
REMARK  175  A    between atoms: _419  and  _420
REMARK  176  A    between atoms: _426  and  _428
REMARK  177  A    between atoms: _428  and  _429
REMARK  178  A    between atoms: _432  and  _433
REMARK  179  A    between atoms: _438  and  _440
REMARK  180  A    between atoms: _440  and  _441
REMARK  181  A    between atoms: _440  and  _443
REMARK  182  A    between atoms: _443  and  _444
REMARK  183  A    between atoms: _450  and  _452
REMARK  184  A    between atoms: _452  and  _453
REMARK  185  A    between atoms: _452  and  _455
REMARK  186  A    between atoms: _455  and  _456
REMARK  187  A    between atoms: _462  and  _464
REMARK  188  A    between atoms: _464  and  _465
REMARK  189  A    between atoms: _464  and  _467
REMARK  190  A    between atoms: _467  and  _468
REMARK  191  A    between atoms: _468  and  _469
REMARK  192  A    between atoms: _469  and  _470
REMARK  193  A    between atoms: _479  and  _481
REMARK  194  A    between atoms: _481  and  _482
REMARK  195  A    between atoms: _484  and  _486
REMARK  196  A    between atoms: _486  and  _487
REMARK  197  A    between atoms: _486  and  _489
REMARK  198  A    between atoms: _489  and  _490
REMARK  199  A    between atoms: _493  and  _495
REMARK  200  A    between atoms: _495  and  _496
REMARK  201  A    between atoms: _498  and  _500
REMARK  202  A    between atoms: _500  and  _501
REMARK  203  A    between atoms: _500  and  _503
REMARK  204  A    between atoms: _503  and  _504
REMARK  205  A    between atoms: _504  and  _505
REMARK  206  A    between atoms: _507  and  _509
REMARK  207  A    between atoms: _509  and  _510
REMARK  208  A    between atoms: _513  and  _515
REMARK  209  A    between atoms: _515  and  _516
REMARK  210  A    between atoms: _515  and  _518
REMARK  211  A    between atoms: _518  and  _519
REMARK  212  A    between atoms: _521  and  _523
REMARK  213  A    between atoms: _523  and  _524
REMARK  214  A    between atoms: _523  and  _526
REMARK  215  A    between atoms: _526  and  _527
REMARK  216  A    between atoms: _530  and  _532
REMARK  217  A    between atoms: _532  and  _533
REMARK  218  A    between atoms: _532  and  _535
REMARK  219  A    between atoms: _535  and  _536
REMARK  220  A    between atoms: _541  and  _543
REMARK  221  A    between atoms: _543  and  _544
REMARK  222  A    between atoms: _543  and  _546
REMARK  223  A    between atoms: _546  and  _547
REMARK  224  A    between atoms: _552  and  _554
REMARK  225  A    between atoms: _554  and  _555
REMARK  226  A    between atoms: _554  and  _557
REMARK  227  A    between atoms: _560  and  _562
REMARK  228  A    between atoms: _562  and  _563
REMARK  229  A    between atoms: _562  and  _565
REMARK  230  A    between atoms: _565  and  _566
REMARK  231  A    between atoms: _571  and  _572
REMARK                            x       y       z     vdW  Elec       q    Type
REMARK                         _______ _______ _______ _____ _____    ______ ____
ROOT
ATOM      1  CA  ARG A   2      18.524  -1.729  12.005  0.00  0.00    +0.149 C 
ENDROOT
BRANCH   1   4
ATOM      2  C   PHE A   1      18.860  -4.091  12.549  0.00  0.00    +0.239 C 
ATOM      3  O   PHE A   1      17.652  -4.323  12.634  0.00  0.00    -0.274 OA
ATOM      4  N   ARG A   2      19.358  -2.879  12.324  0.00  0.00    -0.297 N 
ATOM      5  H   ARG A   2      20.388  -2.747  12.378  0.00  0.00    +0.150 HD
BRANCH   2   6
ATOM      6  CA  PHE A   1      19.888  -5.212  12.690  0.00  0.00    +0.149 C 
BRANCH   6   7
ATOM      7  N   PHE A   1      19.746  -5.964  13.930  0.00  0.00    -0.238 NA
ATOM      8  H   PHE A   1      19.109  -6.785  13.954  0.00  0.00    +0.142 HD
ENDBRANCH   6   7
BRANCH   6   9
ATOM      9  CB  PHE A   1      19.805  -6.126  11.464  0.00  0.00    +0.053 C 
BRANCH   9  10
ATOM     10  CG  PHE A   1      19.987  -5.385  10.169  0.00  0.00    -0.020 A 
ATOM     11  CD2 PHE A   1      21.258  -5.210   9.632  0.00  0.00    -0.004 A 
ATOM     12  CE2 PHE A   1      21.435  -4.509   8.438  0.00  0.00    -0.000 A 
ATOM     13  CZ  PHE A   1      20.340  -3.940   7.792  0.00  0.00    -0.000 A 
ATOM     14  CE1 PHE A   1      19.068  -4.094   8.319  0.00  0.00    -0.000 A 
ATOM     15  CD1 PHE A   1      18.899  -4.807   9.519  0.00  0.00    -0.004 A 
ENDBRANCH   9  10
ENDBRANCH   6   9
ENDBRANCH   2   6
ENDBRANCH   1   4
BRANCH   1  16
ATOM     16  C   ARG A   2      18.999  -1.155  10.683  0.00  0.00    +0.241 C 
ATOM     17  O   ARG A   2      20.199  -1.064  10.436  0.00  0.00    -0.273 OA
ATOM     18  N   GLY A   3      18.051  -0.784   9.831  0.00  0.00    -0.295 N 
ATOM     19  H   GLY A   3      17.055  -0.846  10.123  0.00  0.00    +0.150 HD
BRANCH  18  20
ATOM     20  CA  GLY A   3      18.372  -0.290   8.490  0.00  0.00    +0.176 C 
BRANCH  20  21
ATOM     21  C   GLY A   3      17.194  -0.461   7.548  0.00  0.00    +0.243 C 
ATOM     22  O   GLY A   3      16.046  -0.413   7.985  0.00  0.00    -0.273 OA
ATOM     23  N   ASP A   4      17.478  -0.662   6.263  0.00  0.00    -0.296 N 
ATOM     24  H   ASP A   4      18.472  -0.755   5.973  0.00  0.00    +0.150 HD
BRANCH  23  25
ATOM     25  CA  ASP A   4      16.427  -0.756   5.248  0.00  0.00    +0.160 C 
BRANCH  25  26
ATOM     26  C   ASP A   4      15.885  -2.166   5.086  0.00  0.00    +0.241 C 
ATOM     27  N   GLY A   5      16.752  -3.153   5.262  0.00  0.00    -0.296 N 
ATOM     28  H   GLY A   5      17.723  -2.929   5.560  0.00  0.00    +0.150 HD
ATOM     29  O   ASP A   4      14.706  -2.350   4.782  0.00  0.00    -0.273 OA
BRANCH  27  30
ATOM     30  CA  GLY A   5      16.376  -4.548   5.048  0.00  0.00    +0.163 C 
BRANCH  30  31
ATOM     31  C   GLY A   5      17.581  -5.449   4.914  0.00  0.00    +0.229 C 
ATOM     32  O   GLY A   5      18.723  -5.008   5.070  0.00  0.00    -0.286 OA
ENDBRANCH  30  31
ENDBRANCH  27  30
ENDBRANCH  25  26
BRANCH  25  33
ATOM     33  CB  ASP A   4      16.925  -0.250   3.895  0.00  0.00    +0.143 C 
BRANCH  33  34
ATOM     34  CG  ASP A   4      16.913   1.259   3.793  0.00  0.00    +0.367 C 
ATOM     35  OD2 ASP A   4      16.555   1.928   4.787  0.00  0.00    -0.246 OA
ATOM     36  OD1 ASP A   4      17.245   1.862   2.748  0.00  0.00    -0.246 OA
ENDBRANCH  33  34
ENDBRANCH  25  33
ENDBRANCH  23  25
ENDBRANCH  20  21
ENDBRANCH  18  20
ENDBRANCH   1  16
BRANCH   1  37
ATOM     37  CB  ARG A   2      18.619  -0.648  13.080  0.00  0.00    +0.033 C 
BRANCH  37  38
ATOM     38  CG  ARG A   2      18.236  -1.094  14.471  0.00  0.00    +0.045 C 
BRANCH  38  39
ATOM     39  CD  ARG A   2      18.485  -0.024  15.524  0.00  0.00    +0.174 C 
BRANCH  39  40
ATOM     40  NE  ARG A   2      18.197  -0.529  16.870  0.00  0.00    -0.265 N 
ATOM     41  CZ  ARG A   2      17.067  -0.310  17.532  0.00  0.00    +0.342 C 
ATOM     42  NH2 ARG A   2      16.907  -0.817  18.746  0.00  0.00    -0.292 N 
ATOM     43 HH21 ARG A   2      16.023  -0.648  19.268  0.00  0.00    +0.255 HD
ATOM     44 HH22 ARG A   2      17.665  -1.384  19.177  0.00  0.00    +0.255 HD
ATOM     45  NH1 ARG A   2      16.098   0.424  16.994  0.00  0.00    -0.292 N 
ATOM     46 HH11 ARG A   2      15.217   0.589  17.521  0.00  0.00    +0.255 HD
ATOM     47 HH12 ARG A   2      16.221   0.833  16.046  0.00  0.00    +0.255 HD
ATOM     48  HE  ARG A   2      18.929  -1.099  17.339  0.00  0.00    +0.259 HD
ENDBRANCH  39  40
ENDBRANCH  38  39
ENDBRANCH  37  38
ENDBRANCH   1  37
TORSDOF 18
REMARK  Name = ../refined-set-2016/2i2c/2i2c_pocket.pdb
REMARK  231 active torsions:
REMARK  status: ('A' for Active; 'I' for Inactive)
REMARK    1  A    between atoms: _1  and  _3
REMARK    2  A    between atoms: _3  and  _4
REMARK    3  A    between atoms: _6  and  _8
REMARK    4  A    between atoms: _8  and  _9
REMARK    5  A    between atoms: _8  and  _11
REMARK    6  A    between atoms: _11  and  _12
REMARK    7  A    between atoms: _15  and  _17
REMARK    8  A    between atoms: _17  and  _18
REMARK    9  A    between atoms: _20  and  _22
REMARK   10  A    between atoms: _22  and  _23
REMARK   11  A    between atoms: _22  and  _25
REMARK   12  A    between atoms: _25  and  _26
REMARK   13  A    between atoms: _29  and  _31
REMARK   14  A    between atoms: _31  and  _32
REMARK   15  A    between atoms: _31  and  _34
REMARK   16  A    between atoms: _34  and  _35
REMARK   17  A    between atoms: _41  and  _43
REMARK   18  A    between atoms: _43  and  _44
REMARK   19  A    between atoms: _43  and  _46
REMARK   20  A    between atoms: _46  and  _47
REMARK   21  A    between atoms: _50  and  _52
REMARK   22  A    between atoms: _52  and  _53
REMARK   23  A    between atoms: _52  and  _55
REMARK   24  A    between atoms: _55  and  _56
REMARK   25  A    between atoms: _58  and  _60
REMARK   26  A    between atoms: _60  and  _61
REMARK   27  A    between atoms: _60  and  _63
REMARK   28  A    between atoms: _63  and  _64
REMARK   29  A    between atoms: _69  and  _71
REMARK   30  A    between atoms: _71  and  _72
REMARK   31  A    between atoms: _71  and  _74
REMARK   32  A    between atoms: _74  and  _75
REMARK   33  A    between atoms: _80  and  _82
REMARK   34  A    between atoms: _82  and  _83
REMARK   35  A    between atoms: _82  and  _85
REMARK   36  A    between atoms: _85  and  _86
REMARK   37  A    between atoms: _89  and  _91
REMARK   38  A    between atoms: _91  and  _92
REMARK   39  A    between atoms: _94  and  _96
REMARK   40  A    between atoms: _96  and  _97
REMARK   41  A    between atoms: _96  and  _99
REMARK   42  A    between atoms: _99  and  _100
REMARK   43  A    between atoms: _106  and  _108
REMARK   44  A    between atoms: _108  and  _109
REMARK   45  A    between atoms: _108  and  _111
REMARK   46  A    between atoms: _111  and  _112
REMARK   47  A    between atoms: _117  and  _118
REMARK   48  A    between atoms: _120  and  _122
REMARK   49  A    between atoms: _122  and  _123
REMARK   50  A    between atoms: _126  and  _128
REMARK   51  A    between atoms: _128  and  _129
REMARK   52  A    between atoms: _132  and  _134
REMARK   53  A    between atoms: _134  and  _135
REMARK   54  A    between atoms: _134  and  _137
REMARK   55  A    between atoms: _137  and  _138
REMARK   56  A    between atoms: _141  and  _143
REMARK   57  A    between atoms: _143  and  _144
REMARK   58  A    between atoms: _143  and  _146
REMARK   59  A    between atoms: _146  and  _147
REMARK   60  A    between atoms: _152  and  _154
REMARK   61  A    between atoms: _154  and  _155
REMARK   62  A    between atoms: _154  and  _157
REMARK   63  A    between atoms: _157  and  _158
REMARK   64  A    between atoms: _158  and  _159
REMARK   65  A    between atoms: _162  and  _164
REMARK   66  A    between atoms: _164  and  _165
REMARK   67  A    between atoms: _164  and  _167
REMARK   68  A    between atoms: _167  and  _168
REMARK   69  A    between atoms: _170  and  _172
REMARK   70  A    between atoms: _172  and  _173
REMARK   71  A    between atoms: _172  and  _175
REMARK   72  A    between atoms: _175  and  _176
REMARK   73  A    between atoms: _179  and  _181
REMARK   74  A    between atoms: _181  and  _182
REMARK   75  A    between atoms: _181  and  _184
REMARK   76  A    between atoms: _184  and  _185
REMARK   77  A    between atoms: _185  and  _186
REMARK   78  A    between atoms: _186  and  _187
REMARK   79  A    between atoms: _187  and  _188
REMARK   80  A    between atoms: _192  and  _194
REMARK   81  A    between atoms: _194  and  _195
REMARK   82  A    between atoms: _194  and  _197
REMARK   83  A    between atoms: _199  and  _201
REMARK   84  A    between atoms: _201  and  _202
REMARK   85  A    between atoms: _201  and  _204
REMARK   86  A    between atoms: _204  and  _205
REMARK   87  A    between atoms: _207  and  _209
REMARK   88  A    between atoms: _209  and  _210
REMARK   89  A    between atoms: _209  and  _212
REMARK   90  A    between atoms: _212  and  _213
REMARK   91  A    between atoms: _217  and  _218
REMARK   92  A    between atoms: _223  and  _225
REMARK   93  A    between atoms: _225  and  _226
REMARK   94  A    between atoms: _225  and  _228
REMARK   95  A    between atoms: _228  and  _229
REMARK   96  A    between atoms: _231  and  _233
REMARK   97  A    between atoms: _233  and  _234
REMARK   98  A    between atoms: _236  and  _238
REMARK   99  A    between atoms: _238  and  _239
REMARK  100  A    between atoms: _238  and  _241
REMARK  101  A    between atoms: _241  and  _242
REMARK  102  A    between atoms: _245  and  _247
REMARK  103  A    between atoms: _247  and  _248
REMARK  104  A    between atoms: _247  and  _250
REMARK  105  A    between atoms: _250  and  _251
REMARK  106  A    between atoms: _254  and  _256
REMARK  107  A    between atoms: _256  and  _257
REMARK  108  A    between atoms: _260  and  _262
REMARK  109  A    between atoms: _262  and  _263
REMARK  110  A    between atoms: _262  and  _265
REMARK  111  A    between atoms: _265  and  _266
REMARK  112  A    between atoms: _271  and  _272
REMARK  113  A    between atoms: _274  and  _276
REMARK  114  A    between atoms: _276  and  _277
REMARK  115  A    between atoms: _276  and  _279
REMARK  116  A    between atoms: _279  and  _280
REMARK  117  A    between atoms: _285  and  _287
REMARK  118  A    between atoms: _287  and  _288
REMARK  119  A    between atoms: _287  and  _290
REMARK  120  A    between atoms: _290  and  _291
REMARK  121  A    between atoms: _291  and  _292
REMARK  122  A    between atoms: _292  and  _293
REMARK  123  A    between atoms: _293  and  _294
REMARK  124  A    between atoms: _298  and  _300
REMARK  125  A    between atoms: _300  and  _301
REMARK  126  A    between atoms: _300  and  _303
REMARK  127  A    between atoms: _303  and  _304
REMARK  128  A    between atoms: _306  and  _308
REMARK  129  A    between atoms: _308  and  _309
REMARK  130  A    between atoms: _308  and  _311
REMARK  131  A    between atoms: _311  and  _312
REMARK  132  A    between atoms: _315  and  _317
REMARK  133  A    between atoms: _317  and  _318
REMARK  134  A    between atoms: _317  and  _320
REMARK  135  A    between atoms: _320  and  _321
REMARK  136  A    between atoms: _324  and  _326
REMARK  137  A    between atoms: _326  and  _327
REMARK  138  A    between atoms: _326  and  _329
REMARK  139  A    between atoms: _329  and  _330
REMARK  140  A    between atoms: _332  and  _334
REMARK  141  A    between atoms: _334  and  _335
REMARK  142  A    between atoms: _334  and  _337
REMARK  143  A    between atoms: _340  and  _342
REMARK  144  A    between atoms: _342  and  _343
REMARK  145  A    between atoms: _342  and  _345
REMARK  146  A    between atoms: _345  and  _346
REMARK  147  A    between atoms: _349  and  _351
REMARK  148  A    between atoms: _351  and  _352
REMARK  149  A    between atoms: _351  and  _354
REMARK  150  A    between atoms: _354  and  _355
REMARK  151  A    between atoms: _360  and  _362
REMARK  152  A    between atoms: _362  and  _363
REMARK  153  A    between atoms: _362  and  _365
REMARK  154  A    between atoms: _365  and  _366
REMARK  155  A    between atoms: _369  and  _371
REMARK  156  A    between atoms: _371  and  _372
REMARK  157  A    between atoms: _371  and  _374
REMARK  158  A    between atoms: _374  and  _375
REMARK  159  A    between atoms: _381  and  _383
REMARK  160  A    between atoms: _383  and  _384
REMARK  161  A    between atoms: _383  and  _386
REMARK  162  A    between atoms: _386  and  _387
REMARK  163  A    between atoms: _387  and  _388
REMARK  164  A    between atoms: _388  and  _389
REMARK  165  A    between atoms: _398  and  _400
REMARK  166  A    between atoms: _400  and  _401
REMARK  167  A    between atoms: _400  and  _403
REMARK  168  A    between atoms: _406  and  _408
REMARK  169  A    between atoms: _408  and  _409
REMARK  170  A    between atoms: _408  and  _411
REMARK  171  A    between atoms: _411  and  _412
REMARK  172  A    between atoms: _414  and  _416
REMARK  173  A    between atoms: _416  and  _417
REMARK  174  A    between atoms: _416  and  _419
REMARK  175  A    between atoms: _419  and  _420
REMARK  176  A    between atoms: _426  and  _428
REMARK  177  A    between atoms: _428  and  _429
REMARK  178  A    between atoms: _432  and  _433
REMARK  179  A    between atoms: _438  and  _440
REMARK  180  A    between atoms: _440  and  _441
REMARK  181  A    between atoms: _440  and  _443
REMARK  182  A    between atoms: _443  and  _444
REMARK  183  A    between atoms: _450  and  _452
REMARK  184  A    between atoms: _452  and  _453
REMARK  185  A    between atoms: _452  and  _455
REMARK  186  A    between atoms: _455  and  _456
REMARK  187  A    between atoms: _462  and  _464
REMARK  188  A    between atoms: _464  and  _465
REMARK  189  A    between atoms: _464  and  _467
REMARK  190  A    between atoms: _467  and  _468
REMARK  191  A    between atoms: _468  and  _469
REMARK  192  A    between atoms: _469  and  _470
REMARK  193  A    between atoms: _479  and  _481
REMARK  194  A    between atoms: _481  and  _482
REMARK  195  A    between atoms: _484  and  _486
REMARK  196  A    between atoms: _486  and  _487
REMARK  197  A    between atoms: _486  and  _489
REMARK  198  A    between atoms: _489  and  _490
REMARK  199  A    between atoms: _493  and  _495
REMARK  200  A    between atoms: _495  and  _496
REMARK  201  A    between atoms: _498  and  _500
REMARK  202  A    between atoms: _500  and  _501
REMARK  203  A    between atoms: _500  and  _503
REMARK  204  A    between atoms: _503  and  _504
REMARK  205  A    between atoms: _504  and  _505
REMARK  206  A    between atoms: _507  and  _509
REMARK  207  A    between atoms: _509  and  _510
REMARK  208  A    between atoms: _513  and  _515
REMARK  209  A    between atoms: _515  and  _516
REMARK  210  A    between atoms: _515  and  _518
REMARK  211  A    between atoms: _518  and  _519
REMARK  212  A    between atoms: _521  and  _523
REMARK  213  A    between atoms: _523  and  _524
REMARK  214  A    between atoms: _523  and  _526
REMARK  215  A    between atoms: _526  and  _527
REMARK  216  A    between atoms: _530  and  _532
REMARK  217  A    between atoms: _532  and  _533
REMARK  218  A    between atoms: _532  and  _535
REMARK  219  A    between atoms: _535  and  _536
REMARK  220  A    between atoms: _541  and  _543
REMARK  221  A    between atoms: _543  and  _544
REMARK  222  A    between atoms: _543  and  _546
REMARK  223  A    between atoms: _546  and  _547
REMARK  224  A    between atoms: _552  and  _554
REMARK  225  A    between atoms: _554  and  _555
REMARK  226  A    between atoms: _554  and  _557
REMARK  227  A    between atoms: _560  and  _562
REMARK  228  A    between atoms: _562  and  _563
REMARK  229  A    between atoms: _562  and  _565
REMARK  230  A    between atoms: _565  and  _566
REMARK  231  A    between atoms: _571  and  _572
REMARK                            x       y       z     vdW  Elec       q    Type
REMARK                         _______ _______ _______ _____ _____    ______ ____
ROOT
ATOM      1  CA  ILE A   4      22.661   1.958  10.872  0.00  0.00    +0.149 C 
ENDROOT
BRANCH   1   3
ATOM      2  C   SER A   3      22.967   0.705   8.794  0.00  0.00    +0.243 C 
ATOM      3  N   ILE A   4      22.346   0.868   9.957  0.00  0.00    -0.297 N 
ATOM      4  H   ILE A   4      21.605   0.190  10.226  0.00  0.00    +0.150 HD
ATOM      5  O   SER A   3      23.785   1.507   8.329  0.00  0.00    -0.273 OA
BRANCH   2   6
ATOM      6  CA  SER A   3      22.585  -0.561   8.040  0.00  0.00    +0.178 C 
BRANCH   6   9
ATOM      7  C   ALA A   2      21.634   0.420   6.041  0.00  0.00    +0.241 C 
ATOM      8  O   ALA A   2      20.783   0.982   6.721  0.00  0.00    -0.273 OA
ATOM      9  N   SER A   3      22.559  -0.360   6.590  0.00  0.00    -0.295 N 
ATOM     10  H   SER A   3      23.266  -0.829   5.988  0.00  0.00    +0.150 HD
BRANCH   7  11
ATOM     11  CA  ALA A   2      21.670   0.609   4.506  0.00  0.00    +0.149 C 
ATOM     12  CB  ALA A   2      20.579   1.592   4.053  0.00  0.00    +0.031 C 
BRANCH  11  15
ATOM     13  C   MET A   1      20.704  -1.601   3.995  0.00  0.00    +0.238 C 
ATOM     14  O   MET A   1      19.957  -1.589   4.975  0.00  0.00    -0.274 OA
ATOM     15  N   ALA A   2      21.580  -0.634   3.724  0.00  0.00    -0.297 N 
ATOM     16  H   ALA A   2      22.230  -0.764   2.923  0.00  0.00    +0.150 HD
BRANCH  13  17
ATOM     17  CA  MET A   1      20.670  -2.786   3.043  0.00  0.00    +0.146 C 
BRANCH  17  18
ATOM     18  N   MET A   1      21.104  -3.960   3.791  0.00  0.00    -0.238 NA
ATOM     19  H   MET A   1      20.489  -4.335   4.541  0.00  0.00    +0.142 HD
ENDBRANCH  17  18
BRANCH  17  20
ATOM     20  CB  MET A   1      19.238  -2.939   2.522  0.00  0.00    +0.038 C 
BRANCH  20  21
ATOM     21  CG  MET A   1      18.964  -4.190   1.699  0.00  0.00    +0.060 C 
BRANCH  21  22
ATOM     22  SD  MET A   1      17.197  -4.588   1.585  0.00  0.00    -0.139 S 
ATOM     23  CE  MET A   1      16.475  -2.972   1.357  0.00  0.00    +0.069 C 
ENDBRANCH  21  22
ENDBRANCH  20  21
ENDBRANCH  17  20
ENDBRANCH  13  17
ENDBRANCH  11  15
ENDBRANCH   7  11
ENDBRANCH   6   9
BRANCH   6  24
ATOM     24  CB  SER A   3      23.533  -1.678   8.436  0.00  0.00    +0.166 C 
BRANCH  24  25
ATOM     25  OG  SER A   3      24.819  -1.428   7.923  0.00  0.00    -0.380 OA
ATOM     26  H   SER A   3      25.427  -2.163   8.188  0.00  0.00    +0.211 HD
ENDBRANCH  24  25
ENDBRANCH   6  24
ENDBRANCH   2   6
ENDBRANCH   1   3
BRANCH   1  27
ATOM     27  C   ILE A   4      23.761   1.500  11.828  0.00  0.00    +0.241 C 
ATOM     28  O   ILE A   4      23.625   0.492  12.525  0.00  0.00    -0.273 OA
ATOM     29  N   ASN A   5      24.857   2.251  11.842  0.00  0.00    -0.297 N 
ATOM     30  H   ASN A   5      24.927   3.055  11.186  0.00  0.00    +0.150 HD
BRANCH  29  31
ATOM     31  CA  ASN A   5      25.960   1.981  12.746  0.00  0.00    +0.158 C 
BRANCH  31  32
ATOM     32  C   ASN A   5      26.394   3.269  13.433  0.00  0.00    +0.241 C 
ATOM     33  N   ASN A   6      26.220   3.295  14.748  0.00  0.00    -0.298 N 
ATOM     34  H   ASN A   6      25.730   2.500  15.206  0.00  0.00    +0.150 HD
ATOM     35  O   ASN A   5      26.821   4.232  12.783  0.00  0.00    -0.273 OA
BRANCH  33  36
ATOM     36  CA  ASN A   6      26.693   4.401  15.572  0.00  0.00    +0.146 C 
BRANCH  36  37
ATOM     37  C   ASN A   6      27.185   3.857  16.913  0.00  0.00    +0.227 C 
ATOM     38  O   ASN A   6      27.388   2.645  17.050  0.00  0.00    -0.286 OA
ENDBRANCH  36  37
BRANCH  36  39
ATOM     39  CB  ASN A   6      25.622   5.505  15.716  0.00  0.00    +0.112 C 
BRANCH  39  40
ATOM     40  CG  ASN A   6      24.278   4.978  16.215  0.00  0.00    +0.222 C 
ATOM     41  OD1 ASN A   6      24.218   4.234  17.183  0.00  0.00    -0.275 OA
ATOM     42  ND2 ASN A   6      23.195   5.382  15.555  0.00  0.00    -0.329 N 
ATOM     43 HD21 ASN A   6      22.252   5.064  15.858  0.00  0.00    +0.145 HD
ATOM     44 HD22 ASN A   6      23.291   6.016  14.736  0.00  0.00    +0.145 HD
ENDBRANCH  39  40
ENDBRANCH  36  39
ENDBRANCH  33  36
ENDBRANCH  31  32
BRANCH  31  45
ATOM     45  CB  ASN A   5      27.125   1.314  12.004  0.00  0.00    +0.114 C 
BRANCH  45  46
ATOM     46  CG  ASN A   5      26.944  -0.189  11.863  0.00  0.00    +0.222 C 
ATOM     47  OD1 ASN A   5      27.248  -0.951  12.788  0.00  0.00    -0.275 OA
ATOM     48  ND2 ASN A   5      26.456  -0.625  10.708  0.00  0.00    -0.329 N 
ATOM     49 HD21 ASN A   5      26.316  -1.644  10.554  0.00  0.00    +0.145 HD
ATOM     50 HD22 ASN A   5      26.214   0.052   9.957  0.00  0.00    +0.145 HD
ENDBRANCH  45  46
ENDBRANCH  31  45
ENDBRANCH  29  31
ENDBRANCH   1  27
BRANCH   1  51
ATOM     51  CB  ILE A   4      21.397   2.423  11.628  0.00  0.00    +0.027 C 
ATOM     52  CG2 ILE A   4      21.705   3.650  12.501  0.00  0.00    +0.002 C 
BRANCH  51  53
ATOM     53  CG1 ILE A   4      20.268   2.707  10.618  0.00  0.00    +0.002 C 
ATOM     54  CD1 ILE A   4      18.945   3.117  11.221  0.00  0.00    +0.000 C 
ENDBRANCH  51  53
ENDBRANCH   1  51
TORSDOF 23
REMARK  Name = ../refined-set-2016/2i2c/2i2c_pocket.pdb
REMARK  231 active torsions:
REMARK  status: ('A' for Active; 'I' for Inactive)
REMARK    1  A    between atoms: _1  and  _3
REMARK    2  A    between atoms: _3  and  _4
REMARK    3  A    between atoms: _6  and  _8
REMARK    4  A    between atoms: _8  and  _9
REMARK    5  A    between atoms: _8  and  _11
REMARK    6  A    between atoms: _11  and  _12
REMARK    7  A    between atoms: _15  and  _17
REMARK    8  A    between atoms: _17  and  _18
REMARK    9  A    between atoms: _20  and  _22
REMARK   10  A    between atoms: _22  and  _23
REMARK   11  A    between atoms: _22  and  _25
REMARK   12  A    between atoms: _25  and  _26
REMARK   13  A    between atoms: _29  and  _31
REMARK   14  A    between atoms: _31  and  _32
REMARK   15  A    between atoms: _31  and  _34
REMARK   16  A    between atoms: _34  and  _35
REMARK   17  A    between atoms: _41  and  _43
REMARK   18  A    between atoms: _43  and  _44
REMARK   19  A    between atoms: _43  and  _46
REMARK   20  A    between atoms: _46  and  _47
REMARK   21  A    between atoms: _50  and  _52
REMARK   22  A    between atoms: _52  and  _53
REMARK   23  A    between atoms: _52  and  _55
REMARK   24  A    between atoms: _55  and  _56
REMARK   25  A    between atoms: _58  and  _60
REMARK   26  A    between atoms: _60  and  _61
REMARK   27  A    between atoms: _60  and  _63
REMARK   28  A    between atoms: _63  and  _64
REMARK   29  A    between atoms: _69  and  _71
REMARK   30  A    between atoms: _71  and  _72
REMARK   31  A    between atoms: _71  and  _74
REMARK   32  A    between atoms: _74  and  _75
REMARK   33  A    between atoms: _80  and  _82
REMARK   34  A    between atoms: _82  and  _83
REMARK   35  A    between atoms: _82  and  _85
REMARK   36  A    between atoms: _85  and  _86
REMARK   37  A    between atoms: _89  and  _91
REMARK   38  A    between atoms: _91  and  _92
REMARK   39  A    between atoms: _94  and  _96
REMARK   40  A    between atoms: _96  and  _97
REMARK   41  A    between atoms: _96  and  _99
REMARK   42  A    between atoms: _99  and  _100
REMARK   43  A    between atoms: _106  and  _108
REMARK   44  A    between atoms: _108  and  _109
REMARK   45  A    between atoms: _108  and  _111
REMARK   46  A    between atoms: _111  and  _112
REMARK   47  A    between atoms: _117  and  _118
REMARK   48  A    between atoms: _120  and  _122
REMARK   49  A    between atoms: _122  and  _123
REMARK   50  A    between atoms: _126  and  _128
REMARK   51  A    between atoms: _128  and  _129
REMARK   52  A    between atoms: _132  and  _134
REMARK   53  A    between atoms: _134  and  _135
REMARK   54  A    between atoms: _134  and  _137
REMARK   55  A    between atoms: _137  and  _138
REMARK   56  A    between atoms: _141  and  _143
REMARK   57  A    between atoms: _143  and  _144
REMARK   58  A    between atoms: _143  and  _146
REMARK   59  A    between atoms: _146  and  _147
REMARK   60  A    between atoms: _152  and  _154
REMARK   61  A    between atoms: _154  and  _155
REMARK   62  A    between atoms: _154  and  _157
REMARK   63  A    between atoms: _157  and  _158
REMARK   64  A    between atoms: _158  and  _159
REMARK   65  A    between atoms: _162  and  _164
REMARK   66  A    between atoms: _164  and  _165
REMARK   67  A    between atoms: _164  and  _167
REMARK   68  A    between atoms: _167  and  _168
REMARK   69  A    between atoms: _170  and  _172
REMARK   70  A    between atoms: _172  and  _173
REMARK   71  A    between atoms: _172  and  _175
REMARK   72  A    between atoms: _175  and  _176
REMARK   73  A    between atoms: _179  and  _181
REMARK   74  A    between atoms: _181  and  _182
REMARK   75  A    between atoms: _181  and  _184
REMARK   76  A    between atoms: _184  and  _185
REMARK   77  A    between atoms: _185  and  _186
REMARK   78  A    between atoms: _186  and  _187
REMARK   79  A    between atoms: _187  and  _188
REMARK   80  A    between atoms: _192  and  _194
REMARK   81  A    between atoms: _194  and  _195
REMARK   82  A    between atoms: _194  and  _197
REMARK   83  A    between atoms: _199  and  _201
REMARK   84  A    between atoms: _201  and  _202
REMARK   85  A    between atoms: _201  and  _204
REMARK   86  A    between atoms: _204  and  _205
REMARK   87  A    between atoms: _207  and  _209
REMARK   88  A    between atoms: _209  and  _210
REMARK   89  A    between atoms: _209  and  _212
REMARK   90  A    between atoms: _212  and  _213
REMARK   91  A    between atoms: _217  and  _218
REMARK   92  A    between atoms: _223  and  _225
REMARK   93  A    between atoms: _225  and  _226
REMARK   94  A    between atoms: _225  and  _228
REMARK   95  A    between atoms: _228  and  _229
REMARK   96  A    between atoms: _231  and  _233
REMARK   97  A    between atoms: _233  and  _234
REMARK   98  A    between atoms: _236  and  _238
REMARK   99  A    between atoms: _238  and  _239
REMARK  100  A    between atoms: _238  and  _241
REMARK  101  A    between atoms: _241  and  _242
REMARK  102  A    between atoms: _245  and  _247
REMARK  103  A    between atoms: _247  and  _248
REMARK  104  A    between atoms: _247  and  _250
REMARK  105  A    between atoms: _250  and  _251
REMARK  106  A    between atoms: _254  and  _256
REMARK  107  A    between atoms: _256  and  _257
REMARK  108  A    between atoms: _260  and  _262
REMARK  109  A    between atoms: _262  and  _263
REMARK  110  A    between atoms: _262  and  _265
REMARK  111  A    between atoms: _265  and  _266
REMARK  112  A    between atoms: _271  and  _272
REMARK  113  A    between atoms: _274  and  _276
REMARK  114  A    between atoms: _276  and  _277
REMARK  115  A    between atoms: _276  and  _279
REMARK  116  A    between atoms: _279  and  _280
REMARK  117  A    between atoms: _285  and  _287
REMARK  118  A    between atoms: _287  and  _288
REMARK  119  A    between atoms: _287  and  _290
REMARK  120  A    between atoms: _290  and  _291
REMARK  121  A    between atoms: _291  and  _292
REMARK  122  A    between atoms: _292  and  _293
REMARK  123  A    between atoms: _293  and  _294
REMARK  124  A    between atoms: _298  and  _300
REMARK  125  A    between atoms: _300  and  _301
REMARK  126  A    between atoms: _300  and  _303
REMARK  127  A    between atoms: _303  and  _304
REMARK  128  A    between atoms: _306  and  _308
REMARK  129  A    between atoms: _308  and  _309
REMARK  130  A    between atoms: _308  and  _311
REMARK  131  A    between atoms: _311  and  _312
REMARK  132  A    between atoms: _315  and  _317
REMARK  133  A    between atoms: _317  and  _318
REMARK  134  A    between atoms: _317  and  _320
REMARK  135  A    between atoms: _320  and  _321
REMARK  136  A    between atoms: _324  and  _326
REMARK  137  A    between atoms: _326  and  _327
REMARK  138  A    between atoms: _326  and  _329
REMARK  139  A    between atoms: _329  and  _330
REMARK  140  A    between atoms: _332  and  _334
REMARK  141  A    between atoms: _334  and  _335
REMARK  142  A    between atoms: _334  and  _337
REMARK  143  A    between atoms: _340  and  _342
REMARK  144  A    between atoms: _342  and  _343
REMARK  145  A    between atoms: _342  and  _345
REMARK  146  A    between atoms: _345  and  _346
REMARK  147  A    between atoms: _349  and  _351
REMARK  148  A    between atoms: _351  and  _352
REMARK  149  A    between atoms: _351  and  _354
REMARK  150  A    between atoms: _354  and  _355
REMARK  151  A    between atoms: _360  and  _362
REMARK  152  A    between atoms: _362  and  _363
REMARK  153  A    between atoms: _362  and  _365
REMARK  154  A    between atoms: _365  and  _366
REMARK  155  A    between atoms: _369  and  _371
REMARK  156  A    between atoms: _371  and  _372
REMARK  157  A    between atoms: _371  and  _374
REMARK  158  A    between atoms: _374  and  _375
REMARK  159  A    between atoms: _381  and  _383
REMARK  160  A    between atoms: _383  and  _384
REMARK  161  A    between atoms: _383  and  _386
REMARK  162  A    between atoms: _386  and  _387
REMARK  163  A    between atoms: _387  and  _388
REMARK  164  A    between atoms: _388  and  _389
REMARK  165  A    between atoms: _398  and  _400
REMARK  166  A    between atoms: _400  and  _401
REMARK  167  A    between atoms: _400  and  _403
REMARK  168  A    between atoms: _406  and  _408
REMARK  169  A    between atoms: _408  and  _409
REMARK  170  A    between atoms: _408  and  _411
REMARK  171  A    between atoms: _411  and  _412
REMARK  172  A    between atoms: _414  and  _416
REMARK  173  A    between atoms: _416  and  _417
REMARK  174  A    between atoms: _416  and  _419
REMARK  175  A    between atoms: _419  and  _420
REMARK  176  A    between atoms: _426  and  _428
REMARK  177  A    between atoms: _428  and  _429
REMARK  178  A    between atoms: _432  and  _433
REMARK  179  A    between atoms: _438  and  _440
REMARK  180  A    between atoms: _440  and  _441
REMARK  181  A    between atoms: _440  and  _443
REMARK  182  A    between atoms: _443  and  _444
REMARK  183  A    between atoms: _450  and  _452
REMARK  184  A    between atoms: _452  and  _453
REMARK  185  A    between atoms: _452  and  _455
REMARK  186  A    between atoms: _455  and  _456
REMARK  187  A    between atoms: _462  and  _464
REMARK  188  A    between atoms: _464  and  _465
REMARK  189  A    between atoms: _464  and  _467
REMARK  190  A    between atoms: _467  and  _468
REMARK  191  A    between atoms: _468  and  _469
REMARK  192  A    between atoms: _469  and  _470
REMARK  193  A    between atoms: _479  and  _481
REMARK  194  A    between atoms: _481  and  _482
REMARK  195  A    between atoms: _484  and  _486
REMARK  196  A    between atoms: _486  and  _487
REMARK  197  A    between atoms: _486  and  _489
REMARK  198  A    between atoms: _489  and  _490
REMARK  199  A    between atoms: _493  and  _495
REMARK  200  A    between atoms: _495  and  _496
REMARK  201  A    between atoms: _498  and  _500
REMARK  202  A    between atoms: _500  and  _501
REMARK  203  A    between atoms: _500  and  _503
REMARK  204  A    between atoms: _503  and  _504
REMARK  205  A    between atoms: _504  and  _505
REMARK  206  A    between atoms: _507  and  _509
REMARK  207  A    between atoms: _509  and  _510
REMARK  208  A    between atoms: _513  and  _515
REMARK  209  A    between atoms: _515  and  _516
REMARK  210  A    between atoms: _515  and  _518
REMARK  211  A    between atoms: _518  and  _519
REMARK  212  A    between atoms: _521  and  _523
REMARK  213  A    between atoms: _523  and  _524
REMARK  214  A    between atoms: _523  and  _526
REMARK  215  A    between atoms: _526  and  _527
REMARK  216  A    between atoms: _530  and  _532
REMARK  217  A    between atoms: _532  and  _533
REMARK  218  A    between atoms: _532  and  _535
REMARK  219  A    between atoms: _535  and  _536
REMARK  220  A    between atoms: _541  and  _543
REMARK  221  A    between atoms: _543  and  _544
REMARK  222  A    between atoms: _543  and  _546
REMARK  223  A    between atoms: _546  and  _547
REMARK  224  A    between atoms: _552  and  _554
REMARK  225  A    between atoms: _554  and  _555
REMARK  226  A    between atoms: _554  and  _557
REMARK  227  A    between atoms: _560  and  _562
REMARK  228  A    between atoms: _562  and  _563
REMARK  229  A    between atoms: _562  and  _565
REMARK  230  A    between atoms: _565  and  _566
REMARK  231  A    between atoms: _571  and  _572
REMARK                            x       y       z     vdW  Elec       q    Type
REMARK                         _______ _______ _______ _____ _____    ______ ____
ROOT
ATOM      1  CA  TYR A   2      23.579   0.557  17.200  0.00  0.00    +0.141 C 
ENDROOT
BRANCH   1   4
ATOM      2  C   VAL A   1      24.099   1.427  19.427  0.00  0.00    +0.238 C 
ATOM      3  O   VAL A   1      23.755   0.372  19.963  0.00  0.00    -0.274 OA
ATOM      4  N   TYR A   2      24.041   1.614  18.108  0.00  0.00    -0.298 N 
ATOM      5  H   TYR A   2      24.330   2.531  17.713  0.00  0.00    +0.150 HD
BRANCH   2   6
ATOM      6  CA  VAL A   1      24.612   2.586  20.296  0.00  0.00    +0.145 C 
BRANCH   6   7
ATOM      7  CB  VAL A   1      23.416   3.372  20.906  0.00  0.00    +0.025 C 
ATOM      8  CG2 VAL A   1      23.902   4.350  21.968  0.00  0.00    +0.002 C 
ATOM      9  CG1 VAL A   1      22.602   4.093  19.839  0.00  0.00    +0.002 C 
ENDBRANCH   6   7
BRANCH   6  10
ATOM     10  N   VAL A   1      25.618   3.461  19.672  0.00  0.00    -0.238 NA
ATOM     11  H   VAL A   1      25.303   4.213  19.026  0.00  0.00    +0.142 HD
ENDBRANCH   6  10
ENDBRANCH   2   6
ENDBRANCH   1   4
BRANCH   1  12
ATOM     12  C   TYR A   2      24.739  -0.046  16.404  0.00  0.00    +0.227 C 
ATOM     13  O   TYR A   2      25.491   0.686  15.768  0.00  0.00    -0.286 OA
ENDBRANCH   1  12
BRANCH   1  14
ATOM     14  CB  TYR A   2      22.515   1.082  16.227  0.00  0.00    +0.054 C 
BRANCH  14  15
ATOM     15  CG  TYR A   2      21.328   1.773  16.870  0.00  0.00    -0.020 A 
ATOM     16  CD2 TYR A   2      20.758   1.286  18.047  0.00  0.00    -0.001 A 
ATOM     17  CE2 TYR A   2      19.664   1.920  18.635  0.00  0.00    +0.036 A 
ATOM     18  CZ  TYR A   2      19.117   3.040  18.033  0.00  0.00    +0.134 A 
ATOM     19  CE1 TYR A   2      19.657   3.539  16.859  0.00  0.00    +0.036 A 
ATOM     20  CD1 TYR A   2      20.754   2.898  16.280  0.00  0.00    -0.001 A 
BRANCH  18  21
ATOM     21  OH  TYR A   2      18.034   3.667  18.614  0.00  0.00    -0.506 OA
ATOM     22  HH  TYR A   2      17.778   3.184  19.439  0.00  0.00    +0.292 HD
ENDBRANCH  18  21
ENDBRANCH  14  15
ENDBRANCH   1  14
TORSDOF 8
REMARK  Name = ../refined-set-2016/2i2c/2i2c_pocket.pdb
REMARK  231 active torsions:
REMARK  status: ('A' for Active; 'I' for Inactive)
REMARK    1  A    between atoms: _1  and  _3
REMARK    2  A    between atoms: _3  and  _4
REMARK    3  A    between atoms: _6  and  _8
REMARK    4  A    between atoms: _8  and  _9
REMARK    5  A    between atoms: _8  and  _11
REMARK    6  A    between atoms: _11  and  _12
REMARK    7  A    between atoms: _15  and  _17
REMARK    8  A    between atoms: _17  and  _18
REMARK    9  A    between atoms: _20  and  _22
REMARK   10  A    between atoms: _22  and  _23
REMARK   11  A    between atoms: _22  and  _25
REMARK   12  A    between atoms: _25  and  _26
REMARK   13  A    between atoms: _29  and  _31
REMARK   14  A    between atoms: _31  and  _32
REMARK   15  A    between atoms: _31  and  _34
REMARK   16  A    between atoms: _34  and  _35
REMARK   17  A    between atoms: _41  and  _43
REMARK   18  A    between atoms: _43  and  _44
REMARK   19  A    between atoms: _43  and  _46
REMARK   20  A    between atoms: _46  and  _47
REMARK   21  A    between atoms: _50  and  _52
REMARK   22  A    between atoms: _52  and  _53
REMARK   23  A    between atoms: _52  and  _55
REMARK   24  A    between atoms: _55  and  _56
REMARK   25  A    between atoms: _58  and  _60
REMARK   26  A    between atoms: _60  and  _61
REMARK   27  A    between atoms: _60  and  _63
REMARK   28  A    between atoms: _63  and  _64
REMARK   29  A    between atoms: _69  and  _71
REMARK   30  A    between atoms: _71  and  _72
REMARK   31  A    between atoms: _71  and  _74
REMARK   32  A    between atoms: _74  and  _75
REMARK   33  A    between atoms: _80  and  _82
REMARK   34  A    between atoms: _82  and  _83
REMARK   35  A    between atoms: _82  and  _85
REMARK   36  A    between atoms: _85  and  _86
REMARK   37  A    between atoms: _89  and  _91
REMARK   38  A    between atoms: _91  and  _92
REMARK   39  A    between atoms: _94  and  _96
REMARK   40  A    between atoms: _96  and  _97
REMARK   41  A    between atoms: _96  and  _99
REMARK   42  A    between atoms: _99  and  _100
REMARK   43  A    between atoms: _106  and  _108
REMARK   44  A    between atoms: _108  and  _109
REMARK   45  A    between atoms: _108  and  _111
REMARK   46  A    between atoms: _111  and  _112
REMARK   47  A    between atoms: _117  and  _118
REMARK   48  A    between atoms: _120  and  _122
REMARK   49  A    between atoms: _122  and  _123
REMARK   50  A    between atoms: _126  and  _128
REMARK   51  A    between atoms: _128  and  _129
REMARK   52  A    between atoms: _132  and  _134
REMARK   53  A    between atoms: _134  and  _135
REMARK   54  A    between atoms: _134  and  _137
REMARK   55  A    between atoms: _137  and  _138
REMARK   56  A    between atoms: _141  and  _143
REMARK   57  A    between atoms: _143  and  _144
REMARK   58  A    between atoms: _143  and  _146
REMARK   59  A    between atoms: _146  and  _147
REMARK   60  A    between atoms: _152  and  _154
REMARK   61  A    between atoms: _154  and  _155
REMARK   62  A    between atoms: _154  and  _157
REMARK   63  A    between atoms: _157  and  _158
REMARK   64  A    between atoms: _158  and  _159
REMARK   65  A    between atoms: _162  and  _164
REMARK   66  A    between atoms: _164  and  _165
REMARK   67  A    between atoms: _164  and  _167
REMARK   68  A    between atoms: _167  and  _168
REMARK   69  A    between atoms: _170  and  _172
REMARK   70  A    between atoms: _172  and  _173
REMARK   71  A    between atoms: _172  and  _175
REMARK   72  A    between atoms: _175  and  _176
REMARK   73  A    between atoms: _179  and  _181
REMARK   74  A    between atoms: _181  and  _182
REMARK   75  A    between atoms: _181  and  _184
REMARK   76  A    between atoms: _184  and  _185
REMARK   77  A    between atoms: _185  and  _186
REMARK   78  A    between atoms: _186  and  _187
REMARK   79  A    between atoms: _187  and  _188
REMARK   80  A    between atoms: _192  and  _194
REMARK   81  A    between atoms: _194  and  _195
REMARK   82  A    between atoms: _194  and  _197
REMARK   83  A    between atoms: _199  and  _201
REMARK   84  A    between atoms: _201  and  _202
REMARK   85  A    between atoms: _201  and  _204
REMARK   86  A    between atoms: _204  and  _205
REMARK   87  A    between atoms: _207  and  _209
REMARK   88  A    between atoms: _209  and  _210
REMARK   89  A    between atoms: _209  and  _212
REMARK   90  A    between atoms: _212  and  _213
REMARK   91  A    between atoms: _217  and  _218
REMARK   92  A    between atoms: _223  and  _225
REMARK   93  A    between atoms: _225  and  _226
REMARK   94  A    between atoms: _225  and  _228
REMARK   95  A    between atoms: _228  and  _229
REMARK   96  A    between atoms: _231  and  _233
REMARK   97  A    between atoms: _233  and  _234
REMARK   98  A    between atoms: _236  and  _238
REMARK   99  A    between atoms: _238  and  _239
REMARK  100  A    between atoms: _238  and  _241
REMARK  101  A    between atoms: _241  and  _242
REMARK  102  A    between atoms: _245  and  _247
REMARK  103  A    between atoms: _247  and  _248
REMARK  104  A    between atoms: _247  and  _250
REMARK  105  A    between atoms: _250  and  _251
REMARK  106  A    between atoms: _254  and  _256
REMARK  107  A    between atoms: _256  and  _257
REMARK  108  A    between atoms: _260  and  _262
REMARK  109  A    between atoms: _262  and  _263
REMARK  110  A    between atoms: _262  and  _265
REMARK  111  A    between atoms: _265  and  _266
REMARK  112  A    between atoms: _271  and  _272
REMARK  113  A    between atoms: _274  and  _276
REMARK  114  A    between atoms: _276  and  _277
REMARK  115  A    between atoms: _276  and  _279
REMARK  116  A    between atoms: _279  and  _280
REMARK  117  A    between atoms: _285  and  _287
REMARK  118  A    between atoms: _287  and  _288
REMARK  119  A    between atoms: _287  and  _290
REMARK  120  A    between atoms: _290  and  _291
REMARK  121  A    between atoms: _291  and  _292
REMARK  122  A    between atoms: _292  and  _293
REMARK  123  A    between atoms: _293  and  _294
REMARK  124  A    between atoms: _298  and  _300
REMARK  125  A    between atoms: _300  and  _301
REMARK  126  A    between atoms: _300  and  _303
REMARK  127  A    between atoms: _303  and  _304
REMARK  128  A    between atoms: _306  and  _308
REMARK  129  A    between atoms: _308  and  _309
REMARK  130  A    between atoms: _308  and  _311
REMARK  131  A    between atoms: _311  and  _312
REMARK  132  A    between atoms: _315  and  _317
REMARK  133  A    between atoms: _317  and  _318
REMARK  134  A    between atoms: _317  and  _320
REMARK  135  A    between atoms: _320  and  _321
REMARK  136  A    between atoms: _324  and  _326
REMARK  137  A    between atoms: _326  and  _327
REMARK  138  A    between atoms: _326  and  _329
REMARK  139  A    between atoms: _329  and  _330
REMARK  140  A    between atoms: _332  and  _334
REMARK  141  A    between atoms: _334  and  _335
REMARK  142  A    between atoms: _334  and  _337
REMARK  143  A    between atoms: _340  and  _342
REMARK  144  A    between atoms: _342  and  _343
REMARK  145  A    between atoms: _342  and  _345
REMARK  146  A    between atoms: _345  and  _346
REMARK  147  A    between atoms: _349  and  _351
REMARK  148  A    between atoms: _351  and  _352
REMARK  149  A    between atoms: _351  and  _354
REMARK  150  A    between atoms: _354  and  _355
REMARK  151  A    between atoms: _360  and  _362
REMARK  152  A    between atoms: _362  and  _363
REMARK  153  A    between atoms: _362  and  _365
REMARK  154  A    between atoms: _365  and  _366
REMARK  155  A    between atoms: _369  and  _371
REMARK  156  A    between atoms: _371  and  _372
REMARK  157  A    between atoms: _371  and  _374
REMARK  158  A    between atoms: _374  and  _375
REMARK  159  A    between atoms: _381  and  _383
REMARK  160  A    between atoms: _383  and  _384
REMARK  161  A    between atoms: _383  and  _386
REMARK  162  A    between atoms: _386  and  _387
REMARK  163  A    between atoms: _387  and  _388
REMARK  164  A    between atoms: _388  and  _389
REMARK  165  A    between atoms: _398  and  _400
REMARK  166  A    between atoms: _400  and  _401
REMARK  167  A    between atoms: _400  and  _403
REMARK  168  A    between atoms: _406  and  _408
REMARK  169  A    between atoms: _408  and  _409
REMARK  170  A    between atoms: _408  and  _411
REMARK  171  A    between atoms: _411  and  _412
REMARK  172  A    between atoms: _414  and  _416
REMARK  173  A    between atoms: _416  and  _417
REMARK  174  A    between atoms: _416  and  _419
REMARK  175  A    between atoms: _419  and  _420
REMARK  176  A    between atoms: _426  and  _428
REMARK  177  A    between atoms: _428  and  _429
REMARK  178  A    between atoms: _432  and  _433
REMARK  179  A    between atoms: _438  and  _440
REMARK  180  A    between atoms: _440  and  _441
REMARK  181  A    between atoms: _440  and  _443
REMARK  182  A    between atoms: _443  and  _444
REMARK  183  A    between atoms: _450  and  _452
REMARK  184  A    between atoms: _452  and  _453
REMARK  185  A    between atoms: _452  and  _455
REMARK  186  A    between atoms: _455  and  _456
REMARK  187  A    between atoms: _462  and  _464
REMARK  188  A    between atoms: _464  and  _465
REMARK  189  A    between atoms: _464  and  _467
REMARK  190  A    between atoms: _467  and  _468
REMARK  191  A    between atoms: _468  and  _469
REMARK  192  A    between atoms: _469  and  _470
REMARK  193  A    between atoms: _479  and  _481
REMARK  194  A    between atoms: _481  and  _482
REMARK  195  A    between atoms: _484  and  _486
REMARK  196  A    between atoms: _486  and  _487
REMARK  197  A    between atoms: _486  and  _489
REMARK  198  A    between atoms: _489  and  _490
REMARK  199  A    between atoms: _493  and  _495
REMARK  200  A    between atoms: _495  and  _496
REMARK  201  A    between atoms: _498  and  _500
REMARK  202  A    between atoms: _500  and  _501
REMARK  203  A    between atoms: _500  and  _503
REMARK  204  A    between atoms: _503  and  _504
REMARK  205  A    between atoms: _504  and  _505
REMARK  206  A    between atoms: _507  and  _509
REMARK  207  A    between atoms: _509  and  _510
REMARK  208  A    between atoms: _513  and  _515
REMARK  209  A    between atoms: _515  and  _516
REMARK  210  A    between atoms: _515  and  _518
REMARK  211  A    between atoms: _518  and  _519
REMARK  212  A    between atoms: _521  and  _523
REMARK  213  A    between atoms: _523  and  _524
REMARK  214  A    between atoms: _523  and  _526
REMARK  215  A    between atoms: _526  and  _527
REMARK  216  A    between atoms: _530  and  _532
REMARK  217  A    between atoms: _532  and  _533
REMARK  218  A    between atoms: _532  and  _535
REMARK  219  A    between atoms: _535  and  _536
REMARK  220  A    between atoms: _541  and  _543
REMARK  221  A    between atoms: _543  and  _544
REMARK  222  A    between atoms: _543  and  _546
REMARK  223  A    between atoms: _546  and  _547
REMARK  224  A    between atoms: _552  and  _554
REMARK  225  A    between atoms: _554  and  _555
REMARK  226  A    between atoms: _554  and  _557
REMARK  227  A    between atoms: _560  and  _562
REMARK  228  A    between atoms: _562  and  _563
REMARK  229  A    between atoms: _562  and  _565
REMARK  230  A    between atoms: _565  and  _566
REMARK  231  A    between atoms: _571  and  _572
REMARK                            x       y       z     vdW  Elec       q    Type
REMARK                         _______ _______ _______ _____ _____    ______ ____
ROOT
ATOM      1  O   HOH     1      13.815  10.755   4.454  0.00  0.00    +0.000 OA
ENDROOT
TORSDOF 0
REMARK  Name = ../refined-set-2016/2i2c/2i2c_pocket.pdb
REMARK  231 active torsions:
REMARK  status: ('A' for Active; 'I' for Inactive)
REMARK    1  A    between atoms: _1  and  _3
REMARK    2  A    between atoms: _3  and  _4
REMARK    3  A    between atoms: _6  and  _8
REMARK    4  A    between atoms: _8  and  _9
REMARK    5  A    between atoms: _8  and  _11
REMARK    6  A    between atoms: _11  and  _12
REMARK    7  A    between atoms: _15  and  _17
REMARK    8  A    between atoms: _17  and  _18
REMARK    9  A    between atoms: _20  and  _22
REMARK   10  A    between atoms: _22  and  _23
REMARK   11  A    between atoms: _22  and  _25
REMARK   12  A    between atoms: _25  and  _26
REMARK   13  A    between atoms: _29  and  _31
REMARK   14  A    between atoms: _31  and  _32
REMARK   15  A    between atoms: _31  and  _34
REMARK   16  A    between atoms: _34  and  _35
REMARK   17  A    between atoms: _41  and  _43
REMARK   18  A    between atoms: _43  and  _44
REMARK   19  A    between atoms: _43  and  _46
REMARK   20  A    between atoms: _46  and  _47
REMARK   21  A    between atoms: _50  and  _52
REMARK   22  A    between atoms: _52  and  _53
REMARK   23  A    between atoms: _52  and  _55
REMARK   24  A    between atoms: _55  and  _56
REMARK   25  A    between atoms: _58  and  _60
REMARK   26  A    between atoms: _60  and  _61
REMARK   27  A    between atoms: _60  and  _63
REMARK   28  A    between atoms: _63  and  _64
REMARK   29  A    between atoms: _69  and  _71
REMARK   30  A    between atoms: _71  and  _72
REMARK   31  A    between atoms: _71  and  _74
REMARK   32  A    between atoms: _74  and  _75
REMARK   33  A    between atoms: _80  and  _82
REMARK   34  A    between atoms: _82  and  _83
REMARK   35  A    between atoms: _82  and  _85
REMARK   36  A    between atoms: _85  and  _86
REMARK   37  A    between atoms: _89  and  _91
REMARK   38  A    between atoms: _91  and  _92
REMARK   39  A    between atoms: _94  and  _96
REMARK   40  A    between atoms: _96  and  _97
REMARK   41  A    between atoms: _96  and  _99
REMARK   42  A    between atoms: _99  and  _100
REMARK   43  A    between atoms: _106  and  _108
REMARK   44  A    between atoms: _108  and  _109
REMARK   45  A    between atoms: _108  and  _111
REMARK   46  A    between atoms: _111  and  _112
REMARK   47  A    between atoms: _117  and  _118
REMARK   48  A    between atoms: _120  and  _122
REMARK   49  A    between atoms: _122  and  _123
REMARK   50  A    between atoms: _126  and  _128
REMARK   51  A    between atoms: _128  and  _129
REMARK   52  A    between atoms: _132  and  _134
REMARK   53  A    between atoms: _134  and  _135
REMARK   54  A    between atoms: _134  and  _137
REMARK   55  A    between atoms: _137  and  _138
REMARK   56  A    between atoms: _141  and  _143
REMARK   57  A    between atoms: _143  and  _144
REMARK   58  A    between atoms: _143  and  _146
REMARK   59  A    between atoms: _146  and  _147
REMARK   60  A    between atoms: _152  and  _154
REMARK   61  A    between atoms: _154  and  _155
REMARK   62  A    between atoms: _154  and  _157
REMARK   63  A    between atoms: _157  and  _158
REMARK   64  A    between atoms: _158  and  _159
REMARK   65  A    between atoms: _162  and  _164
REMARK   66  A    between atoms: _164  and  _165
REMARK   67  A    between atoms: _164  and  _167
REMARK   68  A    between atoms: _167  and  _168
REMARK   69  A    between atoms: _170  and  _172
REMARK   70  A    between atoms: _172  and  _173
REMARK   71  A    between atoms: _172  and  _175
REMARK   72  A    between atoms: _175  and  _176
REMARK   73  A    between atoms: _179  and  _181
REMARK   74  A    between atoms: _181  and  _182
REMARK   75  A    between atoms: _181  and  _184
REMARK   76  A    between atoms: _184  and  _185
REMARK   77  A    between atoms: _185  and  _186
REMARK   78  A    between atoms: _186  and  _187
REMARK   79  A    between atoms: _187  and  _188
REMARK   80  A    between atoms: _192  and  _194
REMARK   81  A    between atoms: _194  and  _195
REMARK   82  A    between atoms: _194  and  _197
REMARK   83  A    between atoms: _199  and  _201
REMARK   84  A    between atoms: _201  and  _202
REMARK   85  A    between atoms: _201  and  _204
REMARK   86  A    between atoms: _204  and  _205
REMARK   87  A    between atoms: _207  and  _209
REMARK   88  A    between atoms: _209  and  _210
REMARK   89  A    between atoms: _209  and  _212
REMARK   90  A    between atoms: _212  and  _213
REMARK   91  A    between atoms: _217  and  _218
REMARK   92  A    between atoms: _223  and  _225
REMARK   93  A    between atoms: _225  and  _226
REMARK   94  A    between atoms: _225  and  _228
REMARK   95  A    between atoms: _228  and  _229
REMARK   96  A    between atoms: _231  and  _233
REMARK   97  A    between atoms: _233  and  _234
REMARK   98  A    between atoms: _236  and  _238
REMARK   99  A    between atoms: _238  and  _239
REMARK  100  A    between atoms: _238  and  _241
REMARK  101  A    between atoms: _241  and  _242
REMARK  102  A    between atoms: _245  and  _247
REMARK  103  A    between atoms: _247  and  _248
REMARK  104  A    between atoms: _247  and  _250
REMARK  105  A    between atoms: _250  and  _251
REMARK  106  A    between atoms: _254  and  _256
REMARK  107  A    between atoms: _256  and  _257
REMARK  108  A    between atoms: _260  and  _262
REMARK  109  A    between atoms: _262  and  _263
REMARK  110  A    between atoms: _262  and  _265
REMARK  111  A    between atoms: _265  and  _266
REMARK  112  A    between atoms: _271  and  _272
REMARK  113  A    between atoms: _274  and  _276
REMARK  114  A    between atoms: _276  and  _277
REMARK  115  A    between atoms: _276  and  _279
REMARK  116  A    between atoms: _279  and  _280
REMARK  117  A    between atoms: _285  and  _287
REMARK  118  A    between atoms: _287  and  _288
REMARK  119  A    between atoms: _287  and  _290
REMARK  120  A    between atoms: _290  and  _291
REMARK  121  A    between atoms: _291  and  _292
REMARK  122  A    between atoms: _292  and  _293
REMARK  123  A    between atoms: _293  and  _294
REMARK  124  A    between atoms: _298  and  _300
REMARK  125  A    between atoms: _300  and  _301
REMARK  126  A    between atoms: _300  and  _303
REMARK  127  A    between atoms: _303  and  _304
REMARK  128  A    between atoms: _306  and  _308
REMARK  129  A    between atoms: _308  and  _309
REMARK  130  A    between atoms: _308  and  _311
REMARK  131  A    between atoms: _311  and  _312
REMARK  132  A    between atoms: _315  and  _317
REMARK  133  A    between atoms: _317  and  _318
REMARK  134  A    between atoms: _317  and  _320
REMARK  135  A    between atoms: _320  and  _321
REMARK  136  A    between atoms: _324  and  _326
REMARK  137  A    between atoms: _326  and  _327
REMARK  138  A    between atoms: _326  and  _329
REMARK  139  A    between atoms: _329  and  _330
REMARK  140  A    between atoms: _332  and  _334
REMARK  141  A    between atoms: _334  and  _335
REMARK  142  A    between atoms: _334  and  _337
REMARK  143  A    between atoms: _340  and  _342
REMARK  144  A    between atoms: _342  and  _343
REMARK  145  A    between atoms: _342  and  _345
REMARK  146  A    between atoms: _345  and  _346
REMARK  147  A    between atoms: _349  and  _351
REMARK  148  A    between atoms: _351  and  _352
REMARK  149  A    between atoms: _351  and  _354
REMARK  150  A    between atoms: _354  and  _355
REMARK  151  A    between atoms: _360  and  _362
REMARK  152  A    between atoms: _362  and  _363
REMARK  153  A    between atoms: _362  and  _365
REMARK  154  A    between atoms: _365  and  _366
REMARK  155  A    between atoms: _369  and  _371
REMARK  156  A    between atoms: _371  and  _372
REMARK  157  A    between atoms: _371  and  _374
REMARK  158  A    between atoms: _374  and  _375
REMARK  159  A    between atoms: _381  and  _383
REMARK  160  A    between atoms: _383  and  _384
REMARK  161  A    between atoms: _383  and  _386
REMARK  162  A    between atoms: _386  and  _387
REMARK  163  A    between atoms: _387  and  _388
REMARK  164  A    between atoms: _388  and  _389
REMARK  165  A    between atoms: _398  and  _400
REMARK  166  A    between atoms: _400  and  _401
REMARK  167  A    between atoms: _400  and  _403
REMARK  168  A    between atoms: _406  and  _408
REMARK  169  A    between atoms: _408  and  _409
REMARK  170  A    between atoms: _408  and  _411
REMARK  171  A    between atoms: _411  and  _412
REMARK  172  A    between atoms: _414  and  _416
REMARK  173  A    between atoms: _416  and  _417
REMARK  174  A    between atoms: _416  and  _419
REMARK  175  A    between atoms: _419  and  _420
REMARK  176  A    between atoms: _426  and  _428
REMARK  177  A    between atoms: _428  and  _429
REMARK  178  A    between atoms: _432  and  _433
REMARK  179  A    between atoms: _438  and  _440
REMARK  180  A    between atoms: _440  and  _441
REMARK  181  A    between atoms: _440  and  _443
REMARK  182  A    between atoms: _443  and  _444
REMARK  183  A    between atoms: _450  and  _452
REMARK  184  A    between atoms: _452  and  _453
REMARK  185  A    between atoms: _452  and  _455
REMARK  186  A    between atoms: _455  and  _456
REMARK  187  A    between atoms: _462  and  _464
REMARK  188  A    between atoms: _464  and  _465
REMARK  189  A    between atoms: _464  and  _467
REMARK  190  A    between atoms: _467  and  _468
REMARK  191  A    between atoms: _468  and  _469
REMARK  192  A    between atoms: _469  and  _470
REMARK  193  A    between atoms: _479  and  _481
REMARK  194  A    between atoms: _481  and  _482
REMARK  195  A    between atoms: _484  and  _486
REMARK  196  A    between atoms: _486  and  _487
REMARK  197  A    between atoms: _486  and  _489
REMARK  198  A    between atoms: _489  and  _490
REMARK  199  A    between atoms: _493  and  _495
REMARK  200  A    between atoms: _495  and  _496
REMARK  201  A    between atoms: _498  and  _500
REMARK  202  A    between atoms: _500  and  _501
REMARK  203  A    between atoms: _500  and  _503
REMARK  204  A    between atoms: _503  and  _504
REMARK  205  A    between atoms: _504  and  _505
REMARK  206  A    between atoms: _507  and  _509
REMARK  207  A    between atoms: _509  and  _510
REMARK  208  A    between atoms: _513  and  _515
REMARK  209  A    between atoms: _515  and  _516
REMARK  210  A    between atoms: _515  and  _518
REMARK  211  A    between atoms: _518  and  _519
REMARK  212  A    between atoms: _521  and  _523
REMARK  213  A    between atoms: _523  and  _524
REMARK  214  A    between atoms: _523  and  _526
REMARK  215  A    between atoms: _526  and  _527
REMARK  216  A    between atoms: _530  and  _532
REMARK  217  A    between atoms: _532  and  _533
REMARK  218  A    between atoms: _532  and  _535
REMARK  219  A    between atoms: _535  and  _536
REMARK  220  A    between atoms: _541  and  _543
REMARK  221  A    between atoms: _543  and  _544
REMARK  222  A    between atoms: _543  and  _546
REMARK  223  A    between atoms: _546  and  _547
REMARK  224  A    between atoms: _552  and  _554
REMARK  225  A    between atoms: _554  and  _555
REMARK  226  A    between atoms: _554  and  _557
REMARK  227  A    between atoms: _560  and  _562
REMARK  228  A    between atoms: _562  and  _563
REMARK  229  A    between atoms: _562  and  _565
REMARK  230  A    between atoms: _565  and  _566
REMARK  231  A    between atoms: _571  and  _572
REMARK                            x       y       z     vdW  Elec       q    Type
REMARK                         _______ _______ _______ _____ _____    ______ ____
ROOT
ATOM      1  O   HOH     1      20.779  11.544   4.966  0.00  0.00    +0.000 OA
ENDROOT
TORSDOF 0
REMARK  Name = ../refined-set-2016/2i2c/2i2c_pocket.pdb
REMARK  231 active torsions:
REMARK  status: ('A' for Active; 'I' for Inactive)
REMARK    1  A    between atoms: _1  and  _3
REMARK    2  A    between atoms: _3  and  _4
REMARK    3  A    between atoms: _6  and  _8
REMARK    4  A    between atoms: _8  and  _9
REMARK    5  A    between atoms: _8  and  _11
REMARK    6  A    between atoms: _11  and  _12
REMARK    7  A    between atoms: _15  and  _17
REMARK    8  A    between atoms: _17  and  _18
REMARK    9  A    between atoms: _20  and  _22
REMARK   10  A    between atoms: _22  and  _23
REMARK   11  A    between atoms: _22  and  _25
REMARK   12  A    between atoms: _25  and  _26
REMARK   13  A    between atoms: _29  and  _31
REMARK   14  A    between atoms: _31  and  _32
REMARK   15  A    between atoms: _31  and  _34
REMARK   16  A    between atoms: _34  and  _35
REMARK   17  A    between atoms: _41  and  _43
REMARK   18  A    between atoms: _43  and  _44
REMARK   19  A    between atoms: _43  and  _46
REMARK   20  A    between atoms: _46  and  _47
REMARK   21  A    between atoms: _50  and  _52
REMARK   22  A    between atoms: _52  and  _53
REMARK   23  A    between atoms: _52  and  _55
REMARK   24  A    between atoms: _55  and  _56
REMARK   25  A    between atoms: _58  and  _60
REMARK   26  A    between atoms: _60  and  _61
REMARK   27  A    between atoms: _60  and  _63
REMARK   28  A    between atoms: _63  and  _64
REMARK   29  A    between atoms: _69  and  _71
REMARK   30  A    between atoms: _71  and  _72
REMARK   31  A    between atoms: _71  and  _74
REMARK   32  A    between atoms: _74  and  _75
REMARK   33  A    between atoms: _80  and  _82
REMARK   34  A    between atoms: _82  and  _83
REMARK   35  A    between atoms: _82  and  _85
REMARK   36  A    between atoms: _85  and  _86
REMARK   37  A    between atoms: _89  and  _91
REMARK   38  A    between atoms: _91  and  _92
REMARK   39  A    between atoms: _94  and  _96
REMARK   40  A    between atoms: _96  and  _97
REMARK   41  A    between atoms: _96  and  _99
REMARK   42  A    between atoms: _99  and  _100
REMARK   43  A    between atoms: _106  and  _108
REMARK   44  A    between atoms: _108  and  _109
REMARK   45  A    between atoms: _108  and  _111
REMARK   46  A    between atoms: _111  and  _112
REMARK   47  A    between atoms: _117  and  _118
REMARK   48  A    between atoms: _120  and  _122
REMARK   49  A    between atoms: _122  and  _123
REMARK   50  A    between atoms: _126  and  _128
REMARK   51  A    between atoms: _128  and  _129
REMARK   52  A    between atoms: _132  and  _134
REMARK   53  A    between atoms: _134  and  _135
REMARK   54  A    between atoms: _134  and  _137
REMARK   55  A    between atoms: _137  and  _138
REMARK   56  A    between atoms: _141  and  _143
REMARK   57  A    between atoms: _143  and  _144
REMARK   58  A    between atoms: _143  and  _146
REMARK   59  A    between atoms: _146  and  _147
REMARK   60  A    between atoms: _152  and  _154
REMARK   61  A    between atoms: _154  and  _155
REMARK   62  A    between atoms: _154  and  _157
REMARK   63  A    between atoms: _157  and  _158
REMARK   64  A    between atoms: _158  and  _159
REMARK   65  A    between atoms: _162  and  _164
REMARK   66  A    between atoms: _164  and  _165
REMARK   67  A    between atoms: _164  and  _167
REMARK   68  A    between atoms: _167  and  _168
REMARK   69  A    between atoms: _170  and  _172
REMARK   70  A    between atoms: _172  and  _173
REMARK   71  A    between atoms: _172  and  _175
REMARK   72  A    between atoms: _175  and  _176
REMARK   73  A    between atoms: _179  and  _181
REMARK   74  A    between atoms: _181  and  _182
REMARK   75  A    between atoms: _181  and  _184
REMARK   76  A    between atoms: _184  and  _185
REMARK   77  A    between atoms: _185  and  _186
REMARK   78  A    between atoms: _186  and  _187
REMARK   79  A    between atoms: _187  and  _188
REMARK   80  A    between atoms: _192  and  _194
REMARK   81  A    between atoms: _194  and  _195
REMARK   82  A    between atoms: _194  and  _197
REMARK   83  A    between atoms: _199  and  _201
REMARK   84  A    between atoms: _201  and  _202
REMARK   85  A    between atoms: _201  and  _204
REMARK   86  A    between atoms: _204  and  _205
REMARK   87  A    between atoms: _207  and  _209
REMARK   88  A    between atoms: _209  and  _210
REMARK   89  A    between atoms: _209  and  _212
REMARK   90  A    between atoms: _212  and  _213
REMARK   91  A    between atoms: _217  and  _218
REMARK   92  A    between atoms: _223  and  _225
REMARK   93  A    between atoms: _225  and  _226
REMARK   94  A    between atoms: _225  and  _228
REMARK   95  A    between atoms: _228  and  _229
REMARK   96  A    between atoms: _231  and  _233
REMARK   97  A    between atoms: _233  and  _234
REMARK   98  A    between atoms: _236  and  _238
REMARK   99  A    between atoms: _238  and  _239
REMARK  100  A    between atoms: _238  and  _241
REMARK  101  A    between atoms: _241  and  _242
REMARK  102  A    between atoms: _245  and  _247
REMARK  103  A    between atoms: _247  and  _248
REMARK  104  A    between atoms: _247  and  _250
REMARK  105  A    between atoms: _250  and  _251
REMARK  106  A    between atoms: _254  and  _256
REMARK  107  A    between atoms: _256  and  _257
REMARK  108  A    between atoms: _260  and  _262
REMARK  109  A    between atoms: _262  and  _263
REMARK  110  A    between atoms: _262  and  _265
REMARK  111  A    between atoms: _265  and  _266
REMARK  112  A    between atoms: _271  and  _272
REMARK  113  A    between atoms: _274  and  _276
REMARK  114  A    between atoms: _276  and  _277
REMARK  115  A    between atoms: _276  and  _279
REMARK  116  A    between atoms: _279  and  _280
REMARK  117  A    between atoms: _285  and  _287
REMARK  118  A    between atoms: _287  and  _288
REMARK  119  A    between atoms: _287  and  _290
REMARK  120  A    between atoms: _290  and  _291
REMARK  121  A    between atoms: _291  and  _292
REMARK  122  A    between atoms: _292  and  _293
REMARK  123  A    between atoms: _293  and  _294
REMARK  124  A    between atoms: _298  and  _300
REMARK  125  A    between atoms: _300  and  _301
REMARK  126  A    between atoms: _300  and  _303
REMARK  127  A    between atoms: _303  and  _304
REMARK  128  A    between atoms: _306  and  _308
REMARK  129  A    between atoms: _308  and  _309
REMARK  130  A    between atoms: _308  and  _311
REMARK  131  A    between atoms: _311  and  _312
REMARK  132  A    between atoms: _315  and  _317
REMARK  133  A    between atoms: _317  and  _318
REMARK  134  A    between atoms: _317  and  _320
REMARK  135  A    between atoms: _320  and  _321
REMARK  136  A    between atoms: _324  and  _326
REMARK  137  A    between atoms: _326  and  _327
REMARK  138  A    between atoms: _326  and  _329
REMARK  139  A    between atoms: _329  and  _330
REMARK  140  A    between atoms: _332  and  _334
REMARK  141  A    between atoms: _334  and  _335
REMARK  142  A    between atoms: _334  and  _337
REMARK  143  A    between atoms: _340  and  _342
REMARK  144  A    between atoms: _342  and  _343
REMARK  145  A    between atoms: _342  and  _345
REMARK  146  A    between atoms: _345  and  _346
REMARK  147  A    between atoms: _349  and  _351
REMARK  148  A    between atoms: _351  and  _352
REMARK  149  A    between atoms: _351  and  _354
REMARK  150  A    between atoms: _354  and  _355
REMARK  151  A    between atoms: _360  and  _362
REMARK  152  A    between atoms: _362  and  _363
REMARK  153  A    between atoms: _362  and  _365
REMARK  154  A    between atoms: _365  and  _366
REMARK  155  A    between atoms: _369  and  _371
REMARK  156  A    between atoms: _371  and  _372
REMARK  157  A    between atoms: _371  and  _374
REMARK  158  A    between atoms: _374  and  _375
REMARK  159  A    between atoms: _381  and  _383
REMARK  160  A    between atoms: _383  and  _384
REMARK  161  A    between atoms: _383  and  _386
REMARK  162  A    between atoms: _386  and  _387
REMARK  163  A    between atoms: _387  and  _388
REMARK  164  A    between atoms: _388  and  _389
REMARK  165  A    between atoms: _398  and  _400
REMARK  166  A    between atoms: _400  and  _401
REMARK  167  A    between atoms: _400  and  _403
REMARK  168  A    between atoms: _406  and  _408
REMARK  169  A    between atoms: _408  and  _409
REMARK  170  A    between atoms: _408  and  _411
REMARK  171  A    between atoms: _411  and  _412
REMARK  172  A    between atoms: _414  and  _416
REMARK  173  A    between atoms: _416  and  _417
REMARK  174  A    between atoms: _416  and  _419
REMARK  175  A    between atoms: _419  and  _420
REMARK  176  A    between atoms: _426  and  _428
REMARK  177  A    between atoms: _428  and  _429
REMARK  178  A    between atoms: _432  and  _433
REMARK  179  A    between atoms: _438  and  _440
REMARK  180  A    between atoms: _440  and  _441
REMARK  181  A    between atoms: _440  and  _443
REMARK  182  A    between atoms: _443  and  _444
REMARK  183  A    between atoms: _450  and  _452
REMARK  184  A    between atoms: _452  and  _453
REMARK  185  A    between atoms: _452  and  _455
REMARK  186  A    between atoms: _455  and  _456
REMARK  187  A    between atoms: _462  and  _464
REMARK  188  A    between atoms: _464  and  _465
REMARK  189  A    between atoms: _464  and  _467
REMARK  190  A    between atoms: _467  and  _468
REMARK  191  A    between atoms: _468  and  _469
REMARK  192  A    between atoms: _469  and  _470
REMARK  193  A    between atoms: _479  and  _481
REMARK  194  A    between atoms: _481  and  _482
REMARK  195  A    between atoms: _484  and  _486
REMARK  196  A    between atoms: _486  and  _487
REMARK  197  A    between atoms: _486  and  _489
REMARK  198  A    between atoms: _489  and  _490
REMARK  199  A    between atoms: _493  and  _495
REMARK  200  A    between atoms: _495  and  _496
REMARK  201  A    between atoms: _498  and  _500
REMARK  202  A    between atoms: _500  and  _501
REMARK  203  A    between atoms: _500  and  _503
REMARK  204  A    between atoms: _503  and  _504
REMARK  205  A    between atoms: _504  and  _505
REMARK  206  A    between atoms: _507  and  _509
REMARK  207  A    between atoms: _509  and  _510
REMARK  208  A    between atoms: _513  and  _515
REMARK  209  A    between atoms: _515  and  _516
REMARK  210  A    between atoms: _515  and  _518
REMARK  211  A    between atoms: _518  and  _519
REMARK  212  A    between atoms: _521  and  _523
REMARK  213  A    between atoms: _523  and  _524
REMARK  214  A    between atoms: _523  and  _526
REMARK  215  A    between atoms: _526  and  _527
REMARK  216  A    between atoms: _530  and  _532
REMARK  217  A    between atoms: _532  and  _533
REMARK  218  A    between atoms: _532  and  _535
REMARK  219  A    between atoms: _535  and  _536
REMARK  220  A    between atoms: _541  and  _543
REMARK  221  A    between atoms: _543  and  _544
REMARK  222  A    between atoms: _543  and  _546
REMARK  223  A    between atoms: _546  and  _547
REMARK  224  A    between atoms: _552  and  _554
REMARK  225  A    between atoms: _554  and  _555
REMARK  226  A    between atoms: _554  and  _557
REMARK  227  A    between atoms: _560  and  _562
REMARK  228  A    between atoms: _562  and  _563
REMARK  229  A    between atoms: _562  and  _565
REMARK  230  A    between atoms: _565  and  _566
REMARK  231  A    between atoms: _571  and  _572
REMARK                            x       y       z     vdW  Elec       q    Type
REMARK                         _______ _______ _______ _____ _____    ______ ____
ROOT
ATOM      1  O   HOH     1      10.012  13.348  12.827  0.00  0.00    +0.000 OA
ENDROOT
TORSDOF 0
REMARK  Name = ../refined-set-2016/2i2c/2i2c_pocket.pdb
REMARK  231 active torsions:
REMARK  status: ('A' for Active; 'I' for Inactive)
REMARK    1  A    between atoms: _1  and  _3
REMARK    2  A    between atoms: _3  and  _4
REMARK    3  A    between atoms: _6  and  _8
REMARK    4  A    between atoms: _8  and  _9
REMARK    5  A    between atoms: _8  and  _11
REMARK    6  A    between atoms: _11  and  _12
REMARK    7  A    between atoms: _15  and  _17
REMARK    8  A    between atoms: _17  and  _18
REMARK    9  A    between atoms: _20  and  _22
REMARK   10  A    between atoms: _22  and  _23
REMARK   11  A    between atoms: _22  and  _25
REMARK   12  A    between atoms: _25  and  _26
REMARK   13  A    between atoms: _29  and  _31
REMARK   14  A    between atoms: _31  and  _32
REMARK   15  A    between atoms: _31  and  _34
REMARK   16  A    between atoms: _34  and  _35
REMARK   17  A    between atoms: _41  and  _43
REMARK   18  A    between atoms: _43  and  _44
REMARK   19  A    between atoms: _43  and  _46
REMARK   20  A    between atoms: _46  and  _47
REMARK   21  A    between atoms: _50  and  _52
REMARK   22  A    between atoms: _52  and  _53
REMARK   23  A    between atoms: _52  and  _55
REMARK   24  A    between atoms: _55  and  _56
REMARK   25  A    between atoms: _58  and  _60
REMARK   26  A    between atoms: _60  and  _61
REMARK   27  A    between atoms: _60  and  _63
REMARK   28  A    between atoms: _63  and  _64
REMARK   29  A    between atoms: _69  and  _71
REMARK   30  A    between atoms: _71  and  _72
REMARK   31  A    between atoms: _71  and  _74
REMARK   32  A    between atoms: _74  and  _75
REMARK   33  A    between atoms: _80  and  _82
REMARK   34  A    between atoms: _82  and  _83
REMARK   35  A    between atoms: _82  and  _85
REMARK   36  A    between atoms: _85  and  _86
REMARK   37  A    between atoms: _89  and  _91
REMARK   38  A    between atoms: _91  and  _92
REMARK   39  A    between atoms: _94  and  _96
REMARK   40  A    between atoms: _96  and  _97
REMARK   41  A    between atoms: _96  and  _99
REMARK   42  A    between atoms: _99  and  _100
REMARK   43  A    between atoms: _106  and  _108
REMARK   44  A    between atoms: _108  and  _109
REMARK   45  A    between atoms: _108  and  _111
REMARK   46  A    between atoms: _111  and  _112
REMARK   47  A    between atoms: _117  and  _118
REMARK   48  A    between atoms: _120  and  _122
REMARK   49  A    between atoms: _122  and  _123
REMARK   50  A    between atoms: _126  and  _128
REMARK   51  A    between atoms: _128  and  _129
REMARK   52  A    between atoms: _132  and  _134
REMARK   53  A    between atoms: _134  and  _135
REMARK   54  A    between atoms: _134  and  _137
REMARK   55  A    between atoms: _137  and  _138
REMARK   56  A    between atoms: _141  and  _143
REMARK   57  A    between atoms: _143  and  _144
REMARK   58  A    between atoms: _143  and  _146
REMARK   59  A    between atoms: _146  and  _147
REMARK   60  A    between atoms: _152  and  _154
REMARK   61  A    between atoms: _154  and  _155
REMARK   62  A    between atoms: _154  and  _157
REMARK   63  A    between atoms: _157  and  _158
REMARK   64  A    between atoms: _158  and  _159
REMARK   65  A    between atoms: _162  and  _164
REMARK   66  A    between atoms: _164  and  _165
REMARK   67  A    between atoms: _164  and  _167
REMARK   68  A    between atoms: _167  and  _168
REMARK   69  A    between atoms: _170  and  _172
REMARK   70  A    between atoms: _172  and  _173
REMARK   71  A    between atoms: _172  and  _175
REMARK   72  A    between atoms: _175  and  _176
REMARK   73  A    between atoms: _179  and  _181
REMARK   74  A    between atoms: _181  and  _182
REMARK   75  A    between atoms: _181  and  _184
REMARK   76  A    between atoms: _184  and  _185
REMARK   77  A    between atoms: _185  and  _186
REMARK   78  A    between atoms: _186  and  _187
REMARK   79  A    between atoms: _187  and  _188
REMARK   80  A    between atoms: _192  and  _194
REMARK   81  A    between atoms: _194  and  _195
REMARK   82  A    between atoms: _194  and  _197
REMARK   83  A    between atoms: _199  and  _201
REMARK   84  A    between atoms: _201  and  _202
REMARK   85  A    between atoms: _201  and  _204
REMARK   86  A    between atoms: _204  and  _205
REMARK   87  A    between atoms: _207  and  _209
REMARK   88  A    between atoms: _209  and  _210
REMARK   89  A    between atoms: _209  and  _212
REMARK   90  A    between atoms: _212  and  _213
REMARK   91  A    between atoms: _217  and  _218
REMARK   92  A    between atoms: _223  and  _225
REMARK   93  A    between atoms: _225  and  _226
REMARK   94  A    between atoms: _225  and  _228
REMARK   95  A    between atoms: _228  and  _229
REMARK   96  A    between atoms: _231  and  _233
REMARK   97  A    between atoms: _233  and  _234
REMARK   98  A    between atoms: _236  and  _238
REMARK   99  A    between atoms: _238  and  _239
REMARK  100  A    between atoms: _238  and  _241
REMARK  101  A    between atoms: _241  and  _242
REMARK  102  A    between atoms: _245  and  _247
REMARK  103  A    between atoms: _247  and  _248
REMARK  104  A    between atoms: _247  and  _250
REMARK  105  A    between atoms: _250  and  _251
REMARK  106  A    between atoms: _254  and  _256
REMARK  107  A    between atoms: _256  and  _257
REMARK  108  A    between atoms: _260  and  _262
REMARK  109  A    between atoms: _262  and  _263
REMARK  110  A    between atoms: _262  and  _265
REMARK  111  A    between atoms: _265  and  _266
REMARK  112  A    between atoms: _271  and  _272
REMARK  113  A    between atoms: _274  and  _276
REMARK  114  A    between atoms: _276  and  _277
REMARK  115  A    between atoms: _276  and  _279
REMARK  116  A    between atoms: _279  and  _280
REMARK  117  A    between atoms: _285  and  _287
REMARK  118  A    between atoms: _287  and  _288
REMARK  119  A    between atoms: _287  and  _290
REMARK  120  A    between atoms: _290  and  _291
REMARK  121  A    between atoms: _291  and  _292
REMARK  122  A    between atoms: _292  and  _293
REMARK  123  A    between atoms: _293  and  _294
REMARK  124  A    between atoms: _298  and  _300
REMARK  125  A    between atoms: _300  and  _301
REMARK  126  A    between atoms: _300  and  _303
REMARK  127  A    between atoms: _303  and  _304
REMARK  128  A    between atoms: _306  and  _308
REMARK  129  A    between atoms: _308  and  _309
REMARK  130  A    between atoms: _308  and  _311
REMARK  131  A    between atoms: _311  and  _312
REMARK  132  A    between atoms: _315  and  _317
REMARK  133  A    between atoms: _317  and  _318
REMARK  134  A    between atoms: _317  and  _320
REMARK  135  A    between atoms: _320  and  _321
REMARK  136  A    between atoms: _324  and  _326
REMARK  137  A    between atoms: _326  and  _327
REMARK  138  A    between atoms: _326  and  _329
REMARK  139  A    between atoms: _329  and  _330
REMARK  140  A    between atoms: _332  and  _334
REMARK  141  A    between atoms: _334  and  _335
REMARK  142  A    between atoms: _334  and  _337
REMARK  143  A    between atoms: _340  and  _342
REMARK  144  A    between atoms: _342  and  _343
REMARK  145  A    between atoms: _342  and  _345
REMARK  146  A    between atoms: _345  and  _346
REMARK  147  A    between atoms: _349  and  _351
REMARK  148  A    between atoms: _351  and  _352
REMARK  149  A    between atoms: _351  and  _354
REMARK  150  A    between atoms: _354  and  _355
REMARK  151  A    between atoms: _360  and  _362
REMARK  152  A    between atoms: _362  and  _363
REMARK  153  A    between atoms: _362  and  _365
REMARK  154  A    between atoms: _365  and  _366
REMARK  155  A    between atoms: _369  and  _371
REMARK  156  A    between atoms: _371  and  _372
REMARK  157  A    between atoms: _371  and  _374
REMARK  158  A    between atoms: _374  and  _375
REMARK  159  A    between atoms: _381  and  _383
REMARK  160  A    between atoms: _383  and  _384
REMARK  161  A    between atoms: _383  and  _386
REMARK  162  A    between atoms: _386  and  _387
REMARK  163  A    between atoms: _387  and  _388
REMARK  164  A    between atoms: _388  and  _389
REMARK  165  A    between atoms: _398  and  _400
REMARK  166  A    between atoms: _400  and  _401
REMARK  167  A    between atoms: _400  and  _403
REMARK  168  A    between atoms: _406  and  _408
REMARK  169  A    between atoms: _408  and  _409
REMARK  170  A    between atoms: _408  and  _411
REMARK  171  A    between atoms: _411  and  _412
REMARK  172  A    between atoms: _414  and  _416
REMARK  173  A    between atoms: _416  and  _417
REMARK  174  A    between atoms: _416  and  _419
REMARK  175  A    between atoms: _419  and  _420
REMARK  176  A    between atoms: _426  and  _428
REMARK  177  A    between atoms: _428  and  _429
REMARK  178  A    between atoms: _432  and  _433
REMARK  179  A    between atoms: _438  and  _440
REMARK  180  A    between atoms: _440  and  _441
REMARK  181  A    between atoms: _440  and  _443
REMARK  182  A    between atoms: _443  and  _444
REMARK  183  A    between atoms: _450  and  _452
REMARK  184  A    between atoms: _452  and  _453
REMARK  185  A    between atoms: _452  and  _455
REMARK  186  A    between atoms: _455  and  _456
REMARK  187  A    between atoms: _462  and  _464
REMARK  188  A    between atoms: _464  and  _465
REMARK  189  A    between atoms: _464  and  _467
REMARK  190  A    between atoms: _467  and  _468
REMARK  191  A    between atoms: _468  and  _469
REMARK  192  A    between atoms: _469  and  _470
REMARK  193  A    between atoms: _479  and  _481
REMARK  194  A    between atoms: _481  and  _482
REMARK  195  A    between atoms: _484  and  _486
REMARK  196  A    between atoms: _486  and  _487
REMARK  197  A    between atoms: _486  and  _489
REMARK  198  A    between atoms: _489  and  _490
REMARK  199  A    between atoms: _493  and  _495
REMARK  200  A    between atoms: _495  and  _496
REMARK  201  A    between atoms: _498  and  _500
REMARK  202  A    between atoms: _500  and  _501
REMARK  203  A    between atoms: _500  and  _503
REMARK  204  A    between atoms: _503  and  _504
REMARK  205  A    between atoms: _504  and  _505
REMARK  206  A    between atoms: _507  and  _509
REMARK  207  A    between atoms: _509  and  _510
REMARK  208  A    between atoms: _513  and  _515
REMARK  209  A    between atoms: _515  and  _516
REMARK  210  A    between atoms: _515  and  _518
REMARK  211  A    between atoms: _518  and  _519
REMARK  212  A    between atoms: _521  and  _523
REMARK  213  A    between atoms: _523  and  _524
REMARK  214  A    between atoms: _523  and  _526
REMARK  215  A    between atoms: _526  and  _527
REMARK  216  A    between atoms: _530  and  _532
REMARK  217  A    between atoms: _532  and  _533
REMARK  218  A    between atoms: _532  and  _535
REMARK  219  A    between atoms: _535  and  _536
REMARK  220  A    between atoms: _541  and  _543
REMARK  221  A    between atoms: _543  and  _544
REMARK  222  A    between atoms: _543  and  _546
REMARK  223  A    between atoms: _546  and  _547
REMARK  224  A    between atoms: _552  and  _554
REMARK  225  A    between atoms: _554  and  _555
REMARK  226  A    between atoms: _554  and  _557
REMARK  227  A    between atoms: _560  and  _562
REMARK  228  A    between atoms: _562  and  _563
REMARK  229  A    between atoms: _562  and  _565
REMARK  230  A    between atoms: _565  and  _566
REMARK  231  A    between atoms: _571  and  _572
REMARK                            x       y       z     vdW  Elec       q    Type
REMARK                         _______ _______ _______ _____ _____    ______ ____
ROOT
ATOM      1  O   HOH     1      22.927   7.474  13.686  0.00  0.00    +0.000 OA
ENDROOT
TORSDOF 0
REMARK  Name = ../refined-set-2016/2i2c/2i2c_pocket.pdb
REMARK  231 active torsions:
REMARK  status: ('A' for Active; 'I' for Inactive)
REMARK    1  A    between atoms: _1  and  _3
REMARK    2  A    between atoms: _3  and  _4
REMARK    3  A    between atoms: _6  and  _8
REMARK    4  A    between atoms: _8  and  _9
REMARK    5  A    between atoms: _8  and  _11
REMARK    6  A    between atoms: _11  and  _12
REMARK    7  A    between atoms: _15  and  _17
REMARK    8  A    between atoms: _17  and  _18
REMARK    9  A    between atoms: _20  and  _22
REMARK   10  A    between atoms: _22  and  _23
REMARK   11  A    between atoms: _22  and  _25
REMARK   12  A    between atoms: _25  and  _26
REMARK   13  A    between atoms: _29  and  _31
REMARK   14  A    between atoms: _31  and  _32
REMARK   15  A    between atoms: _31  and  _34
REMARK   16  A    between atoms: _34  and  _35
REMARK   17  A    between atoms: _41  and  _43
REMARK   18  A    between atoms: _43  and  _44
REMARK   19  A    between atoms: _43  and  _46
REMARK   20  A    between atoms: _46  and  _47
REMARK   21  A    between atoms: _50  and  _52
REMARK   22  A    between atoms: _52  and  _53
REMARK   23  A    between atoms: _52  and  _55
REMARK   24  A    between atoms: _55  and  _56
REMARK   25  A    between atoms: _58  and  _60
REMARK   26  A    between atoms: _60  and  _61
REMARK   27  A    between atoms: _60  and  _63
REMARK   28  A    between atoms: _63  and  _64
REMARK   29  A    between atoms: _69  and  _71
REMARK   30  A    between atoms: _71  and  _72
REMARK   31  A    between atoms: _71  and  _74
REMARK   32  A    between atoms: _74  and  _75
REMARK   33  A    between atoms: _80  and  _82
REMARK   34  A    between atoms: _82  and  _83
REMARK   35  A    between atoms: _82  and  _85
REMARK   36  A    between atoms: _85  and  _86
REMARK   37  A    between atoms: _89  and  _91
REMARK   38  A    between atoms: _91  and  _92
REMARK   39  A    between atoms: _94  and  _96
REMARK   40  A    between atoms: _96  and  _97
REMARK   41  A    between atoms: _96  and  _99
REMARK   42  A    between atoms: _99  and  _100
REMARK   43  A    between atoms: _106  and  _108
REMARK   44  A    between atoms: _108  and  _109
REMARK   45  A    between atoms: _108  and  _111
REMARK   46  A    between atoms: _111  and  _112
REMARK   47  A    between atoms: _117  and  _118
REMARK   48  A    between atoms: _120  and  _122
REMARK   49  A    between atoms: _122  and  _123
REMARK   50  A    between atoms: _126  and  _128
REMARK   51  A    between atoms: _128  and  _129
REMARK   52  A    between atoms: _132  and  _134
REMARK   53  A    between atoms: _134  and  _135
REMARK   54  A    between atoms: _134  and  _137
REMARK   55  A    between atoms: _137  and  _138
REMARK   56  A    between atoms: _141  and  _143
REMARK   57  A    between atoms: _143  and  _144
REMARK   58  A    between atoms: _143  and  _146
REMARK   59  A    between atoms: _146  and  _147
REMARK   60  A    between atoms: _152  and  _154
REMARK   61  A    between atoms: _154  and  _155
REMARK   62  A    between atoms: _154  and  _157
REMARK   63  A    between atoms: _157  and  _158
REMARK   64  A    between atoms: _158  and  _159
REMARK   65  A    between atoms: _162  and  _164
REMARK   66  A    between atoms: _164  and  _165
REMARK   67  A    between atoms: _164  and  _167
REMARK   68  A    between atoms: _167  and  _168
REMARK   69  A    between atoms: _170  and  _172
REMARK   70  A    between atoms: _172  and  _173
REMARK   71  A    between atoms: _172  and  _175
REMARK   72  A    between atoms: _175  and  _176
REMARK   73  A    between atoms: _179  and  _181
REMARK   74  A    between atoms: _181  and  _182
REMARK   75  A    between atoms: _181  and  _184
REMARK   76  A    between atoms: _184  and  _185
REMARK   77  A    between atoms: _185  and  _186
REMARK   78  A    between atoms: _186  and  _187
REMARK   79  A    between atoms: _187  and  _188
REMARK   80  A    between atoms: _192  and  _194
REMARK   81  A    between atoms: _194  and  _195
REMARK   82  A    between atoms: _194  and  _197
REMARK   83  A    between atoms: _199  and  _201
REMARK   84  A    between atoms: _201  and  _202
REMARK   85  A    between atoms: _201  and  _204
REMARK   86  A    between atoms: _204  and  _205
REMARK   87  A    between atoms: _207  and  _209
REMARK   88  A    between atoms: _209  and  _210
REMARK   89  A    between atoms: _209  and  _212
REMARK   90  A    between atoms: _212  and  _213
REMARK   91  A    between atoms: _217  and  _218
REMARK   92  A    between atoms: _223  and  _225
REMARK   93  A    between atoms: _225  and  _226
REMARK   94  A    between atoms: _225  and  _228
REMARK   95  A    between atoms: _228  and  _229
REMARK   96  A    between atoms: _231  and  _233
REMARK   97  A    between atoms: _233  and  _234
REMARK   98  A    between atoms: _236  and  _238
REMARK   99  A    between atoms: _238  and  _239
REMARK  100  A    between atoms: _238  and  _241
REMARK  101  A    between atoms: _241  and  _242
REMARK  102  A    between atoms: _245  and  _247
REMARK  103  A    between atoms: _247  and  _248
REMARK  104  A    between atoms: _247  and  _250
REMARK  105  A    between atoms: _250  and  _251
REMARK  106  A    between atoms: _254  and  _256
REMARK  107  A    between atoms: _256  and  _257
REMARK  108  A    between atoms: _260  and  _262
REMARK  109  A    between atoms: _262  and  _263
REMARK  110  A    between atoms: _262  and  _265
REMARK  111  A    between atoms: _265  and  _266
REMARK  112  A    between atoms: _271  and  _272
REMARK  113  A    between atoms: _274  and  _276
REMARK  114  A    between atoms: _276  and  _277
REMARK  115  A    between atoms: _276  and  _279
REMARK  116  A    between atoms: _279  and  _280
REMARK  117  A    between atoms: _285  and  _287
REMARK  118  A    between atoms: _287  and  _288
REMARK  119  A    between atoms: _287  and  _290
REMARK  120  A    between atoms: _290  and  _291
REMARK  121  A    between atoms: _291  and  _292
REMARK  122  A    between atoms: _292  and  _293
REMARK  123  A    between atoms: _293  and  _294
REMARK  124  A    between atoms: _298  and  _300
REMARK  125  A    between atoms: _300  and  _301
REMARK  126  A    between atoms: _300  and  _303
REMARK  127  A    between atoms: _303  and  _304
REMARK  128  A    between atoms: _306  and  _308
REMARK  129  A    between atoms: _308  and  _309
REMARK  130  A    between atoms: _308  and  _311
REMARK  131  A    between atoms: _311  and  _312
REMARK  132  A    between atoms: _315  and  _317
REMARK  133  A    between atoms: _317  and  _318
REMARK  134  A    between atoms: _317  and  _320
REMARK  135  A    between atoms: _320  and  _321
REMARK  136  A    between atoms: _324  and  _326
REMARK  137  A    between atoms: _326  and  _327
REMARK  138  A    between atoms: _326  and  _329
REMARK  139  A    between atoms: _329  and  _330
REMARK  140  A    between atoms: _332  and  _334
REMARK  141  A    between atoms: _334  and  _335
REMARK  142  A    between atoms: _334  and  _337
REMARK  143  A    between atoms: _340  and  _342
REMARK  144  A    between atoms: _342  and  _343
REMARK  145  A    between atoms: _342  and  _345
REMARK  146  A    between atoms: _345  and  _346
REMARK  147  A    between atoms: _349  and  _351
REMARK  148  A    between atoms: _351  and  _352
REMARK  149  A    between atoms: _351  and  _354
REMARK  150  A    between atoms: _354  and  _355
REMARK  151  A    between atoms: _360  and  _362
REMARK  152  A    between atoms: _362  and  _363
REMARK  153  A    between atoms: _362  and  _365
REMARK  154  A    between atoms: _365  and  _366
REMARK  155  A    between atoms: _369  and  _371
REMARK  156  A    between atoms: _371  and  _372
REMARK  157  A    between atoms: _371  and  _374
REMARK  158  A    between atoms: _374  and  _375
REMARK  159  A    between atoms: _381  and  _383
REMARK  160  A    between atoms: _383  and  _384
REMARK  161  A    between atoms: _383  and  _386
REMARK  162  A    between atoms: _386  and  _387
REMARK  163  A    between atoms: _387  and  _388
REMARK  164  A    between atoms: _388  and  _389
REMARK  165  A    between atoms: _398  and  _400
REMARK  166  A    between atoms: _400  and  _401
REMARK  167  A    between atoms: _400  and  _403
REMARK  168  A    between atoms: _406  and  _408
REMARK  169  A    between atoms: _408  and  _409
REMARK  170  A    between atoms: _408  and  _411
REMARK  171  A    between atoms: _411  and  _412
REMARK  172  A    between atoms: _414  and  _416
REMARK  173  A    between atoms: _416  and  _417
REMARK  174  A    between atoms: _416  and  _419
REMARK  175  A    between atoms: _419  and  _420
REMARK  176  A    between atoms: _426  and  _428
REMARK  177  A    between atoms: _428  and  _429
REMARK  178  A    between atoms: _432  and  _433
REMARK  179  A    between atoms: _438  and  _440
REMARK  180  A    between atoms: _440  and  _441
REMARK  181  A    between atoms: _440  and  _443
REMARK  182  A    between atoms: _443  and  _444
REMARK  183  A    between atoms: _450  and  _452
REMARK  184  A    between atoms: _452  and  _453
REMARK  185  A    between atoms: _452  and  _455
REMARK  186  A    between atoms: _455  and  _456
REMARK  187  A    between atoms: _462  and  _464
REMARK  188  A    between atoms: _464  and  _465
REMARK  189  A    between atoms: _464  and  _467
REMARK  190  A    between atoms: _467  and  _468
REMARK  191  A    between atoms: _468  and  _469
REMARK  192  A    between atoms: _469  and  _470
REMARK  193  A    between atoms: _479  and  _481
REMARK  194  A    between atoms: _481  and  _482
REMARK  195  A    between atoms: _484  and  _486
REMARK  196  A    between atoms: _486  and  _487
REMARK  197  A    between atoms: _486  and  _489
REMARK  198  A    between atoms: _489  and  _490
REMARK  199  A    between atoms: _493  and  _495
REMARK  200  A    between atoms: _495  and  _496
REMARK  201  A    between atoms: _498  and  _500
REMARK  202  A    between atoms: _500  and  _501
REMARK  203  A    between atoms: _500  and  _503
REMARK  204  A    between atoms: _503  and  _504
REMARK  205  A    between atoms: _504  and  _505
REMARK  206  A    between atoms: _507  and  _509
REMARK  207  A    between atoms: _509  and  _510
REMARK  208  A    between atoms: _513  and  _515
REMARK  209  A    between atoms: _515  and  _516
REMARK  210  A    between atoms: _515  and  _518
REMARK  211  A    between atoms: _518  and  _519
REMARK  212  A    between atoms: _521  and  _523
REMARK  213  A    between atoms: _523  and  _524
REMARK  214  A    between atoms: _523  and  _526
REMARK  215  A    between atoms: _526  and  _527
REMARK  216  A    between atoms: _530  and  _532
REMARK  217  A    between atoms: _532  and  _533
REMARK  218  A    between atoms: _532  and  _535
REMARK  219  A    between atoms: _535  and  _536
REMARK  220  A    between atoms: _541  and  _543
REMARK  221  A    between atoms: _543  and  _544
REMARK  222  A    between atoms: _543  and  _546
REMARK  223  A    between atoms: _546  and  _547
REMARK  224  A    between atoms: _552  and  _554
REMARK  225  A    between atoms: _554  and  _555
REMARK  226  A    between atoms: _554  and  _557
REMARK  227  A    between atoms: _560  and  _562
REMARK  228  A    between atoms: _562  and  _563
REMARK  229  A    between atoms: _562  and  _565
REMARK  230  A    between atoms: _565  and  _566
REMARK  231  A    between atoms: _571  and  _572
REMARK                            x       y       z     vdW  Elec       q    Type
REMARK                         _______ _______ _______ _____ _____    ______ ____
ROOT
ATOM      1  O   HOH     1      25.979   0.878   6.173  0.00  0.00    +0.000 OA
ENDROOT
TORSDOF 0
REMARK  Name = ../refined-set-2016/2i2c/2i2c_pocket.pdb
REMARK  231 active torsions:
REMARK  status: ('A' for Active; 'I' for Inactive)
REMARK    1  A    between atoms: _1  and  _3
REMARK    2  A    between atoms: _3  and  _4
REMARK    3  A    between atoms: _6  and  _8
REMARK    4  A    between atoms: _8  and  _9
REMARK    5  A    between atoms: _8  and  _11
REMARK    6  A    between atoms: _11  and  _12
REMARK    7  A    between atoms: _15  and  _17
REMARK    8  A    between atoms: _17  and  _18
REMARK    9  A    between atoms: _20  and  _22
REMARK   10  A    between atoms: _22  and  _23
REMARK   11  A    between atoms: _22  and  _25
REMARK   12  A    between atoms: _25  and  _26
REMARK   13  A    between atoms: _29  and  _31
REMARK   14  A    between atoms: _31  and  _32
REMARK   15  A    between atoms: _31  and  _34
REMARK   16  A    between atoms: _34  and  _35
REMARK   17  A    between atoms: _41  and  _43
REMARK   18  A    between atoms: _43  and  _44
REMARK   19  A    between atoms: _43  and  _46
REMARK   20  A    between atoms: _46  and  _47
REMARK   21  A    between atoms: _50  and  _52
REMARK   22  A    between atoms: _52  and  _53
REMARK   23  A    between atoms: _52  and  _55
REMARK   24  A    between atoms: _55  and  _56
REMARK   25  A    between atoms: _58  and  _60
REMARK   26  A    between atoms: _60  and  _61
REMARK   27  A    between atoms: _60  and  _63
REMARK   28  A    between atoms: _63  and  _64
REMARK   29  A    between atoms: _69  and  _71
REMARK   30  A    between atoms: _71  and  _72
REMARK   31  A    between atoms: _71  and  _74
REMARK   32  A    between atoms: _74  and  _75
REMARK   33  A    between atoms: _80  and  _82
REMARK   34  A    between atoms: _82  and  _83
REMARK   35  A    between atoms: _82  and  _85
REMARK   36  A    between atoms: _85  and  _86
REMARK   37  A    between atoms: _89  and  _91
REMARK   38  A    between atoms: _91  and  _92
REMARK   39  A    between atoms: _94  and  _96
REMARK   40  A    between atoms: _96  and  _97
REMARK   41  A    between atoms: _96  and  _99
REMARK   42  A    between atoms: _99  and  _100
REMARK   43  A    between atoms: _106  and  _108
REMARK   44  A    between atoms: _108  and  _109
REMARK   45  A    between atoms: _108  and  _111
REMARK   46  A    between atoms: _111  and  _112
REMARK   47  A    between atoms: _117  and  _118
REMARK   48  A    between atoms: _120  and  _122
REMARK   49  A    between atoms: _122  and  _123
REMARK   50  A    between atoms: _126  and  _128
REMARK   51  A    between atoms: _128  and  _129
REMARK   52  A    between atoms: _132  and  _134
REMARK   53  A    between atoms: _134  and  _135
REMARK   54  A    between atoms: _134  and  _137
REMARK   55  A    between atoms: _137  and  _138
REMARK   56  A    between atoms: _141  and  _143
REMARK   57  A    between atoms: _143  and  _144
REMARK   58  A    between atoms: _143  and  _146
REMARK   59  A    between atoms: _146  and  _147
REMARK   60  A    between atoms: _152  and  _154
REMARK   61  A    between atoms: _154  and  _155
REMARK   62  A    between atoms: _154  and  _157
REMARK   63  A    between atoms: _157  and  _158
REMARK   64  A    between atoms: _158  and  _159
REMARK   65  A    between atoms: _162  and  _164
REMARK   66  A    between atoms: _164  and  _165
REMARK   67  A    between atoms: _164  and  _167
REMARK   68  A    between atoms: _167  and  _168
REMARK   69  A    between atoms: _170  and  _172
REMARK   70  A    between atoms: _172  and  _173
REMARK   71  A    between atoms: _172  and  _175
REMARK   72  A    between atoms: _175  and  _176
REMARK   73  A    between atoms: _179  and  _181
REMARK   74  A    between atoms: _181  and  _182
REMARK   75  A    between atoms: _181  and  _184
REMARK   76  A    between atoms: _184  and  _185
REMARK   77  A    between atoms: _185  and  _186
REMARK   78  A    between atoms: _186  and  _187
REMARK   79  A    between atoms: _187  and  _188
REMARK   80  A    between atoms: _192  and  _194
REMARK   81  A    between atoms: _194  and  _195
REMARK   82  A    between atoms: _194  and  _197
REMARK   83  A    between atoms: _199  and  _201
REMARK   84  A    between atoms: _201  and  _202
REMARK   85  A    between atoms: _201  and  _204
REMARK   86  A    between atoms: _204  and  _205
REMARK   87  A    between atoms: _207  and  _209
REMARK   88  A    between atoms: _209  and  _210
REMARK   89  A    between atoms: _209  and  _212
REMARK   90  A    between atoms: _212  and  _213
REMARK   91  A    between atoms: _217  and  _218
REMARK   92  A    between atoms: _223  and  _225
REMARK   93  A    between atoms: _225  and  _226
REMARK   94  A    between atoms: _225  and  _228
REMARK   95  A    between atoms: _228  and  _229
REMARK   96  A    between atoms: _231  and  _233
REMARK   97  A    between atoms: _233  and  _234
REMARK   98  A    between atoms: _236  and  _238
REMARK   99  A    between atoms: _238  and  _239
REMARK  100  A    between atoms: _238  and  _241
REMARK  101  A    between atoms: _241  and  _242
REMARK  102  A    between atoms: _245  and  _247
REMARK  103  A    between atoms: _247  and  _248
REMARK  104  A    between atoms: _247  and  _250
REMARK  105  A    between atoms: _250  and  _251
REMARK  106  A    between atoms: _254  and  _256
REMARK  107  A    between atoms: _256  and  _257
REMARK  108  A    between atoms: _260  and  _262
REMARK  109  A    between atoms: _262  and  _263
REMARK  110  A    between atoms: _262  and  _265
REMARK  111  A    between atoms: _265  and  _266
REMARK  112  A    between atoms: _271  and  _272
REMARK  113  A    between atoms: _274  and  _276
REMARK  114  A    between atoms: _276  and  _277
REMARK  115  A    between atoms: _276  and  _279
REMARK  116  A    between atoms: _279  and  _280
REMARK  117  A    between atoms: _285  and  _287
REMARK  118  A    between atoms: _287  and  _288
REMARK  119  A    between atoms: _287  and  _290
REMARK  120  A    between atoms: _290  and  _291
REMARK  121  A    between atoms: _291  and  _292
REMARK  122  A    between atoms: _292  and  _293
REMARK  123  A    between atoms: _293  and  _294
REMARK  124  A    between atoms: _298  and  _300
REMARK  125  A    between atoms: _300  and  _301
REMARK  126  A    between atoms: _300  and  _303
REMARK  127  A    between atoms: _303  and  _304
REMARK  128  A    between atoms: _306  and  _308
REMARK  129  A    between atoms: _308  and  _309
REMARK  130  A    between atoms: _308  and  _311
REMARK  131  A    between atoms: _311  and  _312
REMARK  132  A    between atoms: _315  and  _317
REMARK  133  A    between atoms: _317  and  _318
REMARK  134  A    between atoms: _317  and  _320
REMARK  135  A    between atoms: _320  and  _321
REMARK  136  A    between atoms: _324  and  _326
REMARK  137  A    between atoms: _326  and  _327
REMARK  138  A    between atoms: _326  and  _329
REMARK  139  A    between atoms: _329  and  _330
REMARK  140  A    between atoms: _332  and  _334
REMARK  141  A    between atoms: _334  and  _335
REMARK  142  A    between atoms: _334  and  _337
REMARK  143  A    between atoms: _340  and  _342
REMARK  144  A    between atoms: _342  and  _343
REMARK  145  A    between atoms: _342  and  _345
REMARK  146  A    between atoms: _345  and  _346
REMARK  147  A    between atoms: _349  and  _351
REMARK  148  A    between atoms: _351  and  _352
REMARK  149  A    between atoms: _351  and  _354
REMARK  150  A    between atoms: _354  and  _355
REMARK  151  A    between atoms: _360  and  _362
REMARK  152  A    between atoms: _362  and  _363
REMARK  153  A    between atoms: _362  and  _365
REMARK  154  A    between atoms: _365  and  _366
REMARK  155  A    between atoms: _369  and  _371
REMARK  156  A    between atoms: _371  and  _372
REMARK  157  A    between atoms: _371  and  _374
REMARK  158  A    between atoms: _374  and  _375
REMARK  159  A    between atoms: _381  and  _383
REMARK  160  A    between atoms: _383  and  _384
REMARK  161  A    between atoms: _383  and  _386
REMARK  162  A    between atoms: _386  and  _387
REMARK  163  A    between atoms: _387  and  _388
REMARK  164  A    between atoms: _388  and  _389
REMARK  165  A    between atoms: _398  and  _400
REMARK  166  A    between atoms: _400  and  _401
REMARK  167  A    between atoms: _400  and  _403
REMARK  168  A    between atoms: _406  and  _408
REMARK  169  A    between atoms: _408  and  _409
REMARK  170  A    between atoms: _408  and  _411
REMARK  171  A    between atoms: _411  and  _412
REMARK  172  A    between atoms: _414  and  _416
REMARK  173  A    between atoms: _416  and  _417
REMARK  174  A    between atoms: _416  and  _419
REMARK  175  A    between atoms: _419  and  _420
REMARK  176  A    between atoms: _426  and  _428
REMARK  177  A    between atoms: _428  and  _429
REMARK  178  A    between atoms: _432  and  _433
REMARK  179  A    between atoms: _438  and  _440
REMARK  180  A    between atoms: _440  and  _441
REMARK  181  A    between atoms: _440  and  _443
REMARK  182  A    between atoms: _443  and  _444
REMARK  183  A    between atoms: _450  and  _452
REMARK  184  A    between atoms: _452  and  _453
REMARK  185  A    between atoms: _452  and  _455
REMARK  186  A    between atoms: _455  and  _456
REMARK  187  A    between atoms: _462  and  _464
REMARK  188  A    between atoms: _464  and  _465
REMARK  189  A    between atoms: _464  and  _467
REMARK  190  A    between atoms: _467  and  _468
REMARK  191  A    between atoms: _468  and  _469
REMARK  192  A    between atoms: _469  and  _470
REMARK  193  A    between atoms: _479  and  _481
REMARK  194  A    between atoms: _481  and  _482
REMARK  195  A    between atoms: _484  and  _486
REMARK  196  A    between atoms: _486  and  _487
REMARK  197  A    between atoms: _486  and  _489
REMARK  198  A    between atoms: _489  and  _490
REMARK  199  A    between atoms: _493  and  _495
REMARK  200  A    between atoms: _495  and  _496
REMARK  201  A    between atoms: _498  and  _500
REMARK  202  A    between atoms: _500  and  _501
REMARK  203  A    between atoms: _500  and  _503
REMARK  204  A    between atoms: _503  and  _504
REMARK  205  A    between atoms: _504  and  _505
REMARK  206  A    between atoms: _507  and  _509
REMARK  207  A    between atoms: _509  and  _510
REMARK  208  A    between atoms: _513  and  _515
REMARK  209  A    between atoms: _515  and  _516
REMARK  210  A    between atoms: _515  and  _518
REMARK  211  A    between atoms: _518  and  _519
REMARK  212  A    between atoms: _521  and  _523
REMARK  213  A    between atoms: _523  and  _524
REMARK  214  A    between atoms: _523  and  _526
REMARK  215  A    between atoms: _526  and  _527
REMARK  216  A    between atoms: _530  and  _532
REMARK  217  A    between atoms: _532  and  _533
REMARK  218  A    between atoms: _532  and  _535
REMARK  219  A    between atoms: _535  and  _536
REMARK  220  A    between atoms: _541  and  _543
REMARK  221  A    between atoms: _543  and  _544
REMARK  222  A    between atoms: _543  and  _546
REMARK  223  A    between atoms: _546  and  _547
REMARK  224  A    between atoms: _552  and  _554
REMARK  225  A    between atoms: _554  and  _555
REMARK  226  A    between atoms: _554  and  _557
REMARK  227  A    between atoms: _560  and  _562
REMARK  228  A    between atoms: _562  and  _563
REMARK  229  A    between atoms: _562  and  _565
REMARK  230  A    between atoms: _565  and  _566
REMARK  231  A    between atoms: _571  and  _572
REMARK                            x       y       z     vdW  Elec       q    Type
REMARK                         _______ _______ _______ _____ _____    ______ ____
ROOT
ATOM      1  O   HOH     1      24.384  16.127  11.792  0.00  0.00    +0.000 OA
ENDROOT
TORSDOF 0
REMARK  Name = ../refined-set-2016/2i2c/2i2c_pocket.pdb
REMARK  231 active torsions:
REMARK  status: ('A' for Active; 'I' for Inactive)
REMARK    1  A    between atoms: _1  and  _3
REMARK    2  A    between atoms: _3  and  _4
REMARK    3  A    between atoms: _6  and  _8
REMARK    4  A    between atoms: _8  and  _9
REMARK    5  A    between atoms: _8  and  _11
REMARK    6  A    between atoms: _11  and  _12
REMARK    7  A    between atoms: _15  and  _17
REMARK    8  A    between atoms: _17  and  _18
REMARK    9  A    between atoms: _20  and  _22
REMARK   10  A    between atoms: _22  and  _23
REMARK   11  A    between atoms: _22  and  _25
REMARK   12  A    between atoms: _25  and  _26
REMARK   13  A    between atoms: _29  and  _31
REMARK   14  A    between atoms: _31  and  _32
REMARK   15  A    between atoms: _31  and  _34
REMARK   16  A    between atoms: _34  and  _35
REMARK   17  A    between atoms: _41  and  _43
REMARK   18  A    between atoms: _43  and  _44
REMARK   19  A    between atoms: _43  and  _46
REMARK   20  A    between atoms: _46  and  _47
REMARK   21  A    between atoms: _50  and  _52
REMARK   22  A    between atoms: _52  and  _53
REMARK   23  A    between atoms: _52  and  _55
REMARK   24  A    between atoms: _55  and  _56
REMARK   25  A    between atoms: _58  and  _60
REMARK   26  A    between atoms: _60  and  _61
REMARK   27  A    between atoms: _60  and  _63
REMARK   28  A    between atoms: _63  and  _64
REMARK   29  A    between atoms: _69  and  _71
REMARK   30  A    between atoms: _71  and  _72
REMARK   31  A    between atoms: _71  and  _74
REMARK   32  A    between atoms: _74  and  _75
REMARK   33  A    between atoms: _80  and  _82
REMARK   34  A    between atoms: _82  and  _83
REMARK   35  A    between atoms: _82  and  _85
REMARK   36  A    between atoms: _85  and  _86
REMARK   37  A    between atoms: _89  and  _91
REMARK   38  A    between atoms: _91  and  _92
REMARK   39  A    between atoms: _94  and  _96
REMARK   40  A    between atoms: _96  and  _97
REMARK   41  A    between atoms: _96  and  _99
REMARK   42  A    between atoms: _99  and  _100
REMARK   43  A    between atoms: _106  and  _108
REMARK   44  A    between atoms: _108  and  _109
REMARK   45  A    between atoms: _108  and  _111
REMARK   46  A    between atoms: _111  and  _112
REMARK   47  A    between atoms: _117  and  _118
REMARK   48  A    between atoms: _120  and  _122
REMARK   49  A    between atoms: _122  and  _123
REMARK   50  A    between atoms: _126  and  _128
REMARK   51  A    between atoms: _128  and  _129
REMARK   52  A    between atoms: _132  and  _134
REMARK   53  A    between atoms: _134  and  _135
REMARK   54  A    between atoms: _134  and  _137
REMARK   55  A    between atoms: _137  and  _138
REMARK   56  A    between atoms: _141  and  _143
REMARK   57  A    between atoms: _143  and  _144
REMARK   58  A    between atoms: _143  and  _146
REMARK   59  A    between atoms: _146  and  _147
REMARK   60  A    between atoms: _152  and  _154
REMARK   61  A    between atoms: _154  and  _155
REMARK   62  A    between atoms: _154  and  _157
REMARK   63  A    between atoms: _157  and  _158
REMARK   64  A    between atoms: _158  and  _159
REMARK   65  A    between atoms: _162  and  _164
REMARK   66  A    between atoms: _164  and  _165
REMARK   67  A    between atoms: _164  and  _167
REMARK   68  A    between atoms: _167  and  _168
REMARK   69  A    between atoms: _170  and  _172
REMARK   70  A    between atoms: _172  and  _173
REMARK   71  A    between atoms: _172  and  _175
REMARK   72  A    between atoms: _175  and  _176
REMARK   73  A    between atoms: _179  and  _181
REMARK   74  A    between atoms: _181  and  _182
REMARK   75  A    between atoms: _181  and  _184
REMARK   76  A    between atoms: _184  and  _185
REMARK   77  A    between atoms: _185  and  _186
REMARK   78  A    between atoms: _186  and  _187
REMARK   79  A    between atoms: _187  and  _188
REMARK   80  A    between atoms: _192  and  _194
REMARK   81  A    between atoms: _194  and  _195
REMARK   82  A    between atoms: _194  and  _197
REMARK   83  A    between atoms: _199  and  _201
REMARK   84  A    between atoms: _201  and  _202
REMARK   85  A    between atoms: _201  and  _204
REMARK   86  A    between atoms: _204  and  _205
REMARK   87  A    between atoms: _207  and  _209
REMARK   88  A    between atoms: _209  and  _210
REMARK   89  A    between atoms: _209  and  _212
REMARK   90  A    between atoms: _212  and  _213
REMARK   91  A    between atoms: _217  and  _218
REMARK   92  A    between atoms: _223  and  _225
REMARK   93  A    between atoms: _225  and  _226
REMARK   94  A    between atoms: _225  and  _228
REMARK   95  A    between atoms: _228  and  _229
REMARK   96  A    between atoms: _231  and  _233
REMARK   97  A    between atoms: _233  and  _234
REMARK   98  A    between atoms: _236  and  _238
REMARK   99  A    between atoms: _238  and  _239
REMARK  100  A    between atoms: _238  and  _241
REMARK  101  A    between atoms: _241  and  _242
REMARK  102  A    between atoms: _245  and  _247
REMARK  103  A    between atoms: _247  and  _248
REMARK  104  A    between atoms: _247  and  _250
REMARK  105  A    between atoms: _250  and  _251
REMARK  106  A    between atoms: _254  and  _256
REMARK  107  A    between atoms: _256  and  _257
REMARK  108  A    between atoms: _260  and  _262
REMARK  109  A    between atoms: _262  and  _263
REMARK  110  A    between atoms: _262  and  _265
REMARK  111  A    between atoms: _265  and  _266
REMARK  112  A    between atoms: _271  and  _272
REMARK  113  A    between atoms: _274  and  _276
REMARK  114  A    between atoms: _276  and  _277
REMARK  115  A    between atoms: _276  and  _279
REMARK  116  A    between atoms: _279  and  _280
REMARK  117  A    between atoms: _285  and  _287
REMARK  118  A    between atoms: _287  and  _288
REMARK  119  A    between atoms: _287  and  _290
REMARK  120  A    between atoms: _290  and  _291
REMARK  121  A    between atoms: _291  and  _292
REMARK  122  A    between atoms: _292  and  _293
REMARK  123  A    between atoms: _293  and  _294
REMARK  124  A    between atoms: _298  and  _300
REMARK  125  A    between atoms: _300  and  _301
REMARK  126  A    between atoms: _300  and  _303
REMARK  127  A    between atoms: _303  and  _304
REMARK  128  A    between atoms: _306  and  _308
REMARK  129  A    between atoms: _308  and  _309
REMARK  130  A    between atoms: _308  and  _311
REMARK  131  A    between atoms: _311  and  _312
REMARK  132  A    between atoms: _315  and  _317
REMARK  133  A    between atoms: _317  and  _318
REMARK  134  A    between atoms: _317  and  _320
REMARK  135  A    between atoms: _320  and  _321
REMARK  136  A    between atoms: _324  and  _326
REMARK  137  A    between atoms: _326  and  _327
REMARK  138  A    between atoms: _326  and  _329
REMARK  139  A    between atoms: _329  and  _330
REMARK  140  A    between atoms: _332  and  _334
REMARK  141  A    between atoms: _334  and  _335
REMARK  142  A    between atoms: _334  and  _337
REMARK  143  A    between atoms: _340  and  _342
REMARK  144  A    between atoms: _342  and  _343
REMARK  145  A    between atoms: _342  and  _345
REMARK  146  A    between atoms: _345  and  _346
REMARK  147  A    between atoms: _349  and  _351
REMARK  148  A    between atoms: _351  and  _352
REMARK  149  A    between atoms: _351  and  _354
REMARK  150  A    between atoms: _354  and  _355
REMARK  151  A    between atoms: _360  and  _362
REMARK  152  A    between atoms: _362  and  _363
REMARK  153  A    between atoms: _362  and  _365
REMARK  154  A    between atoms: _365  and  _366
REMARK  155  A    between atoms: _369  and  _371
REMARK  156  A    between atoms: _371  and  _372
REMARK  157  A    between atoms: _371  and  _374
REMARK  158  A    between atoms: _374  and  _375
REMARK  159  A    between atoms: _381  and  _383
REMARK  160  A    between atoms: _383  and  _384
REMARK  161  A    between atoms: _383  and  _386
REMARK  162  A    between atoms: _386  and  _387
REMARK  163  A    between atoms: _387  and  _388
REMARK  164  A    between atoms: _388  and  _389
REMARK  165  A    between atoms: _398  and  _400
REMARK  166  A    between atoms: _400  and  _401
REMARK  167  A    between atoms: _400  and  _403
REMARK  168  A    between atoms: _406  and  _408
REMARK  169  A    between atoms: _408  and  _409
REMARK  170  A    between atoms: _408  and  _411
REMARK  171  A    between atoms: _411  and  _412
REMARK  172  A    between atoms: _414  and  _416
REMARK  173  A    between atoms: _416  and  _417
REMARK  174  A    between atoms: _416  and  _419
REMARK  175  A    between atoms: _419  and  _420
REMARK  176  A    between atoms: _426  and  _428
REMARK  177  A    between atoms: _428  and  _429
REMARK  178  A    between atoms: _432  and  _433
REMARK  179  A    between atoms: _438  and  _440
REMARK  180  A    between atoms: _440  and  _441
REMARK  181  A    between atoms: _440  and  _443
REMARK  182  A    between atoms: _443  and  _444
REMARK  183  A    between atoms: _450  and  _452
REMARK  184  A    between atoms: _452  and  _453
REMARK  185  A    between atoms: _452  and  _455
REMARK  186  A    between atoms: _455  and  _456
REMARK  187  A    between atoms: _462  and  _464
REMARK  188  A    between atoms: _464  and  _465
REMARK  189  A    between atoms: _464  and  _467
REMARK  190  A    between atoms: _467  and  _468
REMARK  191  A    between atoms: _468  and  _469
REMARK  192  A    between atoms: _469  and  _470
REMARK  193  A    between atoms: _479  and  _481
REMARK  194  A    between atoms: _481  and  _482
REMARK  195  A    between atoms: _484  and  _486
REMARK  196  A    between atoms: _486  and  _487
REMARK  197  A    between atoms: _486  and  _489
REMARK  198  A    between atoms: _489  and  _490
REMARK  199  A    between atoms: _493  and  _495
REMARK  200  A    between atoms: _495  and  _496
REMARK  201  A    between atoms: _498  and  _500
REMARK  202  A    between atoms: _500  and  _501
REMARK  203  A    between atoms: _500  and  _503
REMARK  204  A    between atoms: _503  and  _504
REMARK  205  A    between atoms: _504  and  _505
REMARK  206  A    between atoms: _507  and  _509
REMARK  207  A    between atoms: _509  and  _510
REMARK  208  A    between atoms: _513  and  _515
REMARK  209  A    between atoms: _515  and  _516
REMARK  210  A    between atoms: _515  and  _518
REMARK  211  A    between atoms: _518  and  _519
REMARK  212  A    between atoms: _521  and  _523
REMARK  213  A    between atoms: _523  and  _524
REMARK  214  A    between atoms: _523  and  _526
REMARK  215  A    between atoms: _526  and  _527
REMARK  216  A    between atoms: _530  and  _532
REMARK  217  A    between atoms: _532  and  _533
REMARK  218  A    between atoms: _532  and  _535
REMARK  219  A    between atoms: _535  and  _536
REMARK  220  A    between atoms: _541  and  _543
REMARK  221  A    between atoms: _543  and  _544
REMARK  222  A    between atoms: _543  and  _546
REMARK  223  A    between atoms: _546  and  _547
REMARK  224  A    between atoms: _552  and  _554
REMARK  225  A    between atoms: _554  and  _555
REMARK  226  A    between atoms: _554  and  _557
REMARK  227  A    between atoms: _560  and  _562
REMARK  228  A    between atoms: _562  and  _563
REMARK  229  A    between atoms: _562  and  _565
REMARK  230  A    between atoms: _565  and  _566
REMARK  231  A    between atoms: _571  and  _572
REMARK                            x       y       z     vdW  Elec       q    Type
REMARK                         _______ _______ _______ _____ _____    ______ ____
ROOT
ATOM      1  O   HOH     1      21.400   0.508  -0.062  0.00  0.00    +0.000 OA
ENDROOT
TORSDOF 0
REMARK  Name = ../refined-set-2016/2i2c/2i2c_pocket.pdb
REMARK  231 active torsions:
REMARK  status: ('A' for Active; 'I' for Inactive)
REMARK    1  A    between atoms: _1  and  _3
REMARK    2  A    between atoms: _3  and  _4
REMARK    3  A    between atoms: _6  and  _8
REMARK    4  A    between atoms: _8  and  _9
REMARK    5  A    between atoms: _8  and  _11
REMARK    6  A    between atoms: _11  and  _12
REMARK    7  A    between atoms: _15  and  _17
REMARK    8  A    between atoms: _17  and  _18
REMARK    9  A    between atoms: _20  and  _22
REMARK   10  A    between atoms: _22  and  _23
REMARK   11  A    between atoms: _22  and  _25
REMARK   12  A    between atoms: _25  and  _26
REMARK   13  A    between atoms: _29  and  _31
REMARK   14  A    between atoms: _31  and  _32
REMARK   15  A    between atoms: _31  and  _34
REMARK   16  A    between atoms: _34  and  _35
REMARK   17  A    between atoms: _41  and  _43
REMARK   18  A    between atoms: _43  and  _44
REMARK   19  A    between atoms: _43  and  _46
REMARK   20  A    between atoms: _46  and  _47
REMARK   21  A    between atoms: _50  and  _52
REMARK   22  A    between atoms: _52  and  _53
REMARK   23  A    between atoms: _52  and  _55
REMARK   24  A    between atoms: _55  and  _56
REMARK   25  A    between atoms: _58  and  _60
REMARK   26  A    between atoms: _60  and  _61
REMARK   27  A    between atoms: _60  and  _63
REMARK   28  A    between atoms: _63  and  _64
REMARK   29  A    between atoms: _69  and  _71
REMARK   30  A    between atoms: _71  and  _72
REMARK   31  A    between atoms: _71  and  _74
REMARK   32  A    between atoms: _74  and  _75
REMARK   33  A    between atoms: _80  and  _82
REMARK   34  A    between atoms: _82  and  _83
REMARK   35  A    between atoms: _82  and  _85
REMARK   36  A    between atoms: _85  and  _86
REMARK   37  A    between atoms: _89  and  _91
REMARK   38  A    between atoms: _91  and  _92
REMARK   39  A    between atoms: _94  and  _96
REMARK   40  A    between atoms: _96  and  _97
REMARK   41  A    between atoms: _96  and  _99
REMARK   42  A    between atoms: _99  and  _100
REMARK   43  A    between atoms: _106  and  _108
REMARK   44  A    between atoms: _108  and  _109
REMARK   45  A    between atoms: _108  and  _111
REMARK   46  A    between atoms: _111  and  _112
REMARK   47  A    between atoms: _117  and  _118
REMARK   48  A    between atoms: _120  and  _122
REMARK   49  A    between atoms: _122  and  _123
REMARK   50  A    between atoms: _126  and  _128
REMARK   51  A    between atoms: _128  and  _129
REMARK   52  A    between atoms: _132  and  _134
REMARK   53  A    between atoms: _134  and  _135
REMARK   54  A    between atoms: _134  and  _137
REMARK   55  A    between atoms: _137  and  _138
REMARK   56  A    between atoms: _141  and  _143
REMARK   57  A    between atoms: _143  and  _144
REMARK   58  A    between atoms: _143  and  _146
REMARK   59  A    between atoms: _146  and  _147
REMARK   60  A    between atoms: _152  and  _154
REMARK   61  A    between atoms: _154  and  _155
REMARK   62  A    between atoms: _154  and  _157
REMARK   63  A    between atoms: _157  and  _158
REMARK   64  A    between atoms: _158  and  _159
REMARK   65  A    between atoms: _162  and  _164
REMARK   66  A    between atoms: _164  and  _165
REMARK   67  A    between atoms: _164  and  _167
REMARK   68  A    between atoms: _167  and  _168
REMARK   69  A    between atoms: _170  and  _172
REMARK   70  A    between atoms: _172  and  _173
REMARK   71  A    between atoms: _172  and  _175
REMARK   72  A    between atoms: _175  and  _176
REMARK   73  A    between atoms: _179  and  _181
REMARK   74  A    between atoms: _181  and  _182
REMARK   75  A    between atoms: _181  and  _184
REMARK   76  A    between atoms: _184  and  _185
REMARK   77  A    between atoms: _185  and  _186
REMARK   78  A    between atoms: _186  and  _187
REMARK   79  A    between atoms: _187  and  _188
REMARK   80  A    between atoms: _192  and  _194
REMARK   81  A    between atoms: _194  and  _195
REMARK   82  A    between atoms: _194  and  _197
REMARK   83  A    between atoms: _199  and  _201
REMARK   84  A    between atoms: _201  and  _202
REMARK   85  A    between atoms: _201  and  _204
REMARK   86  A    between atoms: _204  and  _205
REMARK   87  A    between atoms: _207  and  _209
REMARK   88  A    between atoms: _209  and  _210
REMARK   89  A    between atoms: _209  and  _212
REMARK   90  A    between atoms: _212  and  _213
REMARK   91  A    between atoms: _217  and  _218
REMARK   92  A    between atoms: _223  and  _225
REMARK   93  A    between atoms: _225  and  _226
REMARK   94  A    between atoms: _225  and  _228
REMARK   95  A    between atoms: _228  and  _229
REMARK   96  A    between atoms: _231  and  _233
REMARK   97  A    between atoms: _233  and  _234
REMARK   98  A    between atoms: _236  and  _238
REMARK   99  A    between atoms: _238  and  _239
REMARK  100  A    between atoms: _238  and  _241
REMARK  101  A    between atoms: _241  and  _242
REMARK  102  A    between atoms: _245  and  _247
REMARK  103  A    between atoms: _247  and  _248
REMARK  104  A    between atoms: _247  and  _250
REMARK  105  A    between atoms: _250  and  _251
REMARK  106  A    between atoms: _254  and  _256
REMARK  107  A    between atoms: _256  and  _257
REMARK  108  A    between atoms: _260  and  _262
REMARK  109  A    between atoms: _262  and  _263
REMARK  110  A    between atoms: _262  and  _265
REMARK  111  A    between atoms: _265  and  _266
REMARK  112  A    between atoms: _271  and  _272
REMARK  113  A    between atoms: _274  and  _276
REMARK  114  A    between atoms: _276  and  _277
REMARK  115  A    between atoms: _276  and  _279
REMARK  116  A    between atoms: _279  and  _280
REMARK  117  A    between atoms: _285  and  _287
REMARK  118  A    between atoms: _287  and  _288
REMARK  119  A    between atoms: _287  and  _290
REMARK  120  A    between atoms: _290  and  _291
REMARK  121  A    between atoms: _291  and  _292
REMARK  122  A    between atoms: _292  and  _293
REMARK  123  A    between atoms: _293  and  _294
REMARK  124  A    between atoms: _298  and  _300
REMARK  125  A    between atoms: _300  and  _301
REMARK  126  A    between atoms: _300  and  _303
REMARK  127  A    between atoms: _303  and  _304
REMARK  128  A    between atoms: _306  and  _308
REMARK  129  A    between atoms: _308  and  _309
REMARK  130  A    between atoms: _308  and  _311
REMARK  131  A    between atoms: _311  and  _312
REMARK  132  A    between atoms: _315  and  _317
REMARK  133  A    between atoms: _317  and  _318
REMARK  134  A    between atoms: _317  and  _320
REMARK  135  A    between atoms: _320  and  _321
REMARK  136  A    between atoms: _324  and  _326
REMARK  137  A    between atoms: _326  and  _327
REMARK  138  A    between atoms: _326  and  _329
REMARK  139  A    between atoms: _329  and  _330
REMARK  140  A    between atoms: _332  and  _334
REMARK  141  A    between atoms: _334  and  _335
REMARK  142  A    between atoms: _334  and  _337
REMARK  143  A    between atoms: _340  and  _342
REMARK  144  A    between atoms: _342  and  _343
REMARK  145  A    between atoms: _342  and  _345
REMARK  146  A    between atoms: _345  and  _346
REMARK  147  A    between atoms: _349  and  _351
REMARK  148  A    between atoms: _351  and  _352
REMARK  149  A    between atoms: _351  and  _354
REMARK  150  A    between atoms: _354  and  _355
REMARK  151  A    between atoms: _360  and  _362
REMARK  152  A    between atoms: _362  and  _363
REMARK  153  A    between atoms: _362  and  _365
REMARK  154  A    between atoms: _365  and  _366
REMARK  155  A    between atoms: _369  and  _371
REMARK  156  A    between atoms: _371  and  _372
REMARK  157  A    between atoms: _371  and  _374
REMARK  158  A    between atoms: _374  and  _375
REMARK  159  A    between atoms: _381  and  _383
REMARK  160  A    between atoms: _383  and  _384
REMARK  161  A    between atoms: _383  and  _386
REMARK  162  A    between atoms: _386  and  _387
REMARK  163  A    between atoms: _387  and  _388
REMARK  164  A    between atoms: _388  and  _389
REMARK  165  A    between atoms: _398  and  _400
REMARK  166  A    between atoms: _400  and  _401
REMARK  167  A    between atoms: _400  and  _403
REMARK  168  A    between atoms: _406  and  _408
REMARK  169  A    between atoms: _408  and  _409
REMARK  170  A    between atoms: _408  and  _411
REMARK  171  A    between atoms: _411  and  _412
REMARK  172  A    between atoms: _414  and  _416
REMARK  173  A    between atoms: _416  and  _417
REMARK  174  A    between atoms: _416  and  _419
REMARK  175  A    between atoms: _419  and  _420
REMARK  176  A    between atoms: _426  and  _428
REMARK  177  A    between atoms: _428  and  _429
REMARK  178  A    between atoms: _432  and  _433
REMARK  179  A    between atoms: _438  and  _440
REMARK  180  A    between atoms: _440  and  _441
REMARK  181  A    between atoms: _440  and  _443
REMARK  182  A    between atoms: _443  and  _444
REMARK  183  A    between atoms: _450  and  _452
REMARK  184  A    between atoms: _452  and  _453
REMARK  185  A    between atoms: _452  and  _455
REMARK  186  A    between atoms: _455  and  _456
REMARK  187  A    between atoms: _462  and  _464
REMARK  188  A    between atoms: _464  and  _465
REMARK  189  A    between atoms: _464  and  _467
REMARK  190  A    between atoms: _467  and  _468
REMARK  191  A    between atoms: _468  and  _469
REMARK  192  A    between atoms: _469  and  _470
REMARK  193  A    between atoms: _479  and  _481
REMARK  194  A    between atoms: _481  and  _482
REMARK  195  A    between atoms: _484  and  _486
REMARK  196  A    between atoms: _486  and  _487
REMARK  197  A    between atoms: _486  and  _489
REMARK  198  A    between atoms: _489  and  _490
REMARK  199  A    between atoms: _493  and  _495
REMARK  200  A    between atoms: _495  and  _496
REMARK  201  A    between atoms: _498  and  _500
REMARK  202  A    between atoms: _500  and  _501
REMARK  203  A    between atoms: _500  and  _503
REMARK  204  A    between atoms: _503  and  _504
REMARK  205  A    between atoms: _504  and  _505
REMARK  206  A    between atoms: _507  and  _509
REMARK  207  A    between atoms: _509  and  _510
REMARK  208  A    between atoms: _513  and  _515
REMARK  209  A    between atoms: _515  and  _516
REMARK  210  A    between atoms: _515  and  _518
REMARK  211  A    between atoms: _518  and  _519
REMARK  212  A    between atoms: _521  and  _523
REMARK  213  A    between atoms: _523  and  _524
REMARK  214  A    between atoms: _523  and  _526
REMARK  215  A    between atoms: _526  and  _527
REMARK  216  A    between atoms: _530  and  _532
REMARK  217  A    between atoms: _532  and  _533
REMARK  218  A    between atoms: _532  and  _535
REMARK  219  A    between atoms: _535  and  _536
REMARK  220  A    between atoms: _541  and  _543
REMARK  221  A    between atoms: _543  and  _544
REMARK  222  A    between atoms: _543  and  _546
REMARK  223  A    between atoms: _546  and  _547
REMARK  224  A    between atoms: _552  and  _554
REMARK  225  A    between atoms: _554  and  _555
REMARK  226  A    between atoms: _554  and  _557
REMARK  227  A    between atoms: _560  and  _562
REMARK  228  A    between atoms: _562  and  _563
REMARK  229  A    between atoms: _562  and  _565
REMARK  230  A    between atoms: _565  and  _566
REMARK  231  A    between atoms: _571  and  _572
REMARK                            x       y       z     vdW  Elec       q    Type
REMARK                         _______ _______ _______ _____ _____    ______ ____
ROOT
ATOM      1  O   HOH     1      13.954   8.178   5.490  0.00  0.00    +0.000 OA
ENDROOT
TORSDOF 0
REMARK  Name = ../refined-set-2016/2i2c/2i2c_pocket.pdb
REMARK  231 active torsions:
REMARK  status: ('A' for Active; 'I' for Inactive)
REMARK    1  A    between atoms: _1  and  _3
REMARK    2  A    between atoms: _3  and  _4
REMARK    3  A    between atoms: _6  and  _8
REMARK    4  A    between atoms: _8  and  _9
REMARK    5  A    between atoms: _8  and  _11
REMARK    6  A    between atoms: _11  and  _12
REMARK    7  A    between atoms: _15  and  _17
REMARK    8  A    between atoms: _17  and  _18
REMARK    9  A    between atoms: _20  and  _22
REMARK   10  A    between atoms: _22  and  _23
REMARK   11  A    between atoms: _22  and  _25
REMARK   12  A    between atoms: _25  and  _26
REMARK   13  A    between atoms: _29  and  _31
REMARK   14  A    between atoms: _31  and  _32
REMARK   15  A    between atoms: _31  and  _34
REMARK   16  A    between atoms: _34  and  _35
REMARK   17  A    between atoms: _41  and  _43
REMARK   18  A    between atoms: _43  and  _44
REMARK   19  A    between atoms: _43  and  _46
REMARK   20  A    between atoms: _46  and  _47
REMARK   21  A    between atoms: _50  and  _52
REMARK   22  A    between atoms: _52  and  _53
REMARK   23  A    between atoms: _52  and  _55
REMARK   24  A    between atoms: _55  and  _56
REMARK   25  A    between atoms: _58  and  _60
REMARK   26  A    between atoms: _60  and  _61
REMARK   27  A    between atoms: _60  and  _63
REMARK   28  A    between atoms: _63  and  _64
REMARK   29  A    between atoms: _69  and  _71
REMARK   30  A    between atoms: _71  and  _72
REMARK   31  A    between atoms: _71  and  _74
REMARK   32  A    between atoms: _74  and  _75
REMARK   33  A    between atoms: _80  and  _82
REMARK   34  A    between atoms: _82  and  _83
REMARK   35  A    between atoms: _82  and  _85
REMARK   36  A    between atoms: _85  and  _86
REMARK   37  A    between atoms: _89  and  _91
REMARK   38  A    between atoms: _91  and  _92
REMARK   39  A    between atoms: _94  and  _96
REMARK   40  A    between atoms: _96  and  _97
REMARK   41  A    between atoms: _96  and  _99
REMARK   42  A    between atoms: _99  and  _100
REMARK   43  A    between atoms: _106  and  _108
REMARK   44  A    between atoms: _108  and  _109
REMARK   45  A    between atoms: _108  and  _111
REMARK   46  A    between atoms: _111  and  _112
REMARK   47  A    between atoms: _117  and  _118
REMARK   48  A    between atoms: _120  and  _122
REMARK   49  A    between atoms: _122  and  _123
REMARK   50  A    between atoms: _126  and  _128
REMARK   51  A    between atoms: _128  and  _129
REMARK   52  A    between atoms: _132  and  _134
REMARK   53  A    between atoms: _134  and  _135
REMARK   54  A    between atoms: _134  and  _137
REMARK   55  A    between atoms: _137  and  _138
REMARK   56  A    between atoms: _141  and  _143
REMARK   57  A    between atoms: _143  and  _144
REMARK   58  A    between atoms: _143  and  _146
REMARK   59  A    between atoms: _146  and  _147
REMARK   60  A    between atoms: _152  and  _154
REMARK   61  A    between atoms: _154  and  _155
REMARK   62  A    between atoms: _154  and  _157
REMARK   63  A    between atoms: _157  and  _158
REMARK   64  A    between atoms: _158  and  _159
REMARK   65  A    between atoms: _162  and  _164
REMARK   66  A    between atoms: _164  and  _165
REMARK   67  A    between atoms: _164  and  _167
REMARK   68  A    between atoms: _167  and  _168
REMARK   69  A    between atoms: _170  and  _172
REMARK   70  A    between atoms: _172  and  _173
REMARK   71  A    between atoms: _172  and  _175
REMARK   72  A    between atoms: _175  and  _176
REMARK   73  A    between atoms: _179  and  _181
REMARK   74  A    between atoms: _181  and  _182
REMARK   75  A    between atoms: _181  and  _184
REMARK   76  A    between atoms: _184  and  _185
REMARK   77  A    between atoms: _185  and  _186
REMARK   78  A    between atoms: _186  and  _187
REMARK   79  A    between atoms: _187  and  _188
REMARK   80  A    between atoms: _192  and  _194
REMARK   81  A    between atoms: _194  and  _195
REMARK   82  A    between atoms: _194  and  _197
REMARK   83  A    between atoms: _199  and  _201
REMARK   84  A    between atoms: _201  and  _202
REMARK   85  A    between atoms: _201  and  _204
REMARK   86  A    between atoms: _204  and  _205
REMARK   87  A    between atoms: _207  and  _209
REMARK   88  A    between atoms: _209  and  _210
REMARK   89  A    between atoms: _209  and  _212
REMARK   90  A    between atoms: _212  and  _213
REMARK   91  A    between atoms: _217  and  _218
REMARK   92  A    between atoms: _223  and  _225
REMARK   93  A    between atoms: _225  and  _226
REMARK   94  A    between atoms: _225  and  _228
REMARK   95  A    between atoms: _228  and  _229
REMARK   96  A    between atoms: _231  and  _233
REMARK   97  A    between atoms: _233  and  _234
REMARK   98  A    between atoms: _236  and  _238
REMARK   99  A    between atoms: _238  and  _239
REMARK  100  A    between atoms: _238  and  _241
REMARK  101  A    between atoms: _241  and  _242
REMARK  102  A    between atoms: _245  and  _247
REMARK  103  A    between atoms: _247  and  _248
REMARK  104  A    between atoms: _247  and  _250
REMARK  105  A    between atoms: _250  and  _251
REMARK  106  A    between atoms: _254  and  _256
REMARK  107  A    between atoms: _256  and  _257
REMARK  108  A    between atoms: _260  and  _262
REMARK  109  A    between atoms: _262  and  _263
REMARK  110  A    between atoms: _262  and  _265
REMARK  111  A    between atoms: _265  and  _266
REMARK  112  A    between atoms: _271  and  _272
REMARK  113  A    between atoms: _274  and  _276
REMARK  114  A    between atoms: _276  and  _277
REMARK  115  A    between atoms: _276  and  _279
REMARK  116  A    between atoms: _279  and  _280
REMARK  117  A    between atoms: _285  and  _287
REMARK  118  A    between atoms: _287  and  _288
REMARK  119  A    between atoms: _287  and  _290
REMARK  120  A    between atoms: _290  and  _291
REMARK  121  A    between atoms: _291  and  _292
REMARK  122  A    between atoms: _292  and  _293
REMARK  123  A    between atoms: _293  and  _294
REMARK  124  A    between atoms: _298  and  _300
REMARK  125  A    between atoms: _300  and  _301
REMARK  126  A    between atoms: _300  and  _303
REMARK  127  A    between atoms: _303  and  _304
REMARK  128  A    between atoms: _306  and  _308
REMARK  129  A    between atoms: _308  and  _309
REMARK  130  A    between atoms: _308  and  _311
REMARK  131  A    between atoms: _311  and  _312
REMARK  132  A    between atoms: _315  and  _317
REMARK  133  A    between atoms: _317  and  _318
REMARK  134  A    between atoms: _317  and  _320
REMARK  135  A    between atoms: _320  and  _321
REMARK  136  A    between atoms: _324  and  _326
REMARK  137  A    between atoms: _326  and  _327
REMARK  138  A    between atoms: _326  and  _329
REMARK  139  A    between atoms: _329  and  _330
REMARK  140  A    between atoms: _332  and  _334
REMARK  141  A    between atoms: _334  and  _335
REMARK  142  A    between atoms: _334  and  _337
REMARK  143  A    between atoms: _340  and  _342
REMARK  144  A    between atoms: _342  and  _343
REMARK  145  A    between atoms: _342  and  _345
REMARK  146  A    between atoms: _345  and  _346
REMARK  147  A    between atoms: _349  and  _351
REMARK  148  A    between atoms: _351  and  _352
REMARK  149  A    between atoms: _351  and  _354
REMARK  150  A    between atoms: _354  and  _355
REMARK  151  A    between atoms: _360  and  _362
REMARK  152  A    between atoms: _362  and  _363
REMARK  153  A    between atoms: _362  and  _365
REMARK  154  A    between atoms: _365  and  _366
REMARK  155  A    between atoms: _369  and  _371
REMARK  156  A    between atoms: _371  and  _372
REMARK  157  A    between atoms: _371  and  _374
REMARK  158  A    between atoms: _374  and  _375
REMARK  159  A    between atoms: _381  and  _383
REMARK  160  A    between atoms: _383  and  _384
REMARK  161  A    between atoms: _383  and  _386
REMARK  162  A    between atoms: _386  and  _387
REMARK  163  A    between atoms: _387  and  _388
REMARK  164  A    between atoms: _388  and  _389
REMARK  165  A    between atoms: _398  and  _400
REMARK  166  A    between atoms: _400  and  _401
REMARK  167  A    between atoms: _400  and  _403
REMARK  168  A    between atoms: _406  and  _408
REMARK  169  A    between atoms: _408  and  _409
REMARK  170  A    between atoms: _408  and  _411
REMARK  171  A    between atoms: _411  and  _412
REMARK  172  A    between atoms: _414  and  _416
REMARK  173  A    between atoms: _416  and  _417
REMARK  174  A    between atoms: _416  and  _419
REMARK  175  A    between atoms: _419  and  _420
REMARK  176  A    between atoms: _426  and  _428
REMARK  177  A    between atoms: _428  and  _429
REMARK  178  A    between atoms: _432  and  _433
REMARK  179  A    between atoms: _438  and  _440
REMARK  180  A    between atoms: _440  and  _441
REMARK  181  A    between atoms: _440  and  _443
REMARK  182  A    between atoms: _443  and  _444
REMARK  183  A    between atoms: _450  and  _452
REMARK  184  A    between atoms: _452  and  _453
REMARK  185  A    between atoms: _452  and  _455
REMARK  186  A    between atoms: _455  and  _456
REMARK  187  A    between atoms: _462  and  _464
REMARK  188  A    between atoms: _464  and  _465
REMARK  189  A    between atoms: _464  and  _467
REMARK  190  A    between atoms: _467  and  _468
REMARK  191  A    between atoms: _468  and  _469
REMARK  192  A    between atoms: _469  and  _470
REMARK  193  A    between atoms: _479  and  _481
REMARK  194  A    between atoms: _481  and  _482
REMARK  195  A    between atoms: _484  and  _486
REMARK  196  A    between atoms: _486  and  _487
REMARK  197  A    between atoms: _486  and  _489
REMARK  198  A    between atoms: _489  and  _490
REMARK  199  A    between atoms: _493  and  _495
REMARK  200  A    between atoms: _495  and  _496
REMARK  201  A    between atoms: _498  and  _500
REMARK  202  A    between atoms: _500  and  _501
REMARK  203  A    between atoms: _500  and  _503
REMARK  204  A    between atoms: _503  and  _504
REMARK  205  A    between atoms: _504  and  _505
REMARK  206  A    between atoms: _507  and  _509
REMARK  207  A    between atoms: _509  and  _510
REMARK  208  A    between atoms: _513  and  _515
REMARK  209  A    between atoms: _515  and  _516
REMARK  210  A    between atoms: _515  and  _518
REMARK  211  A    between atoms: _518  and  _519
REMARK  212  A    between atoms: _521  and  _523
REMARK  213  A    between atoms: _523  and  _524
REMARK  214  A    between atoms: _523  and  _526
REMARK  215  A    between atoms: _526  and  _527
REMARK  216  A    between atoms: _530  and  _532
REMARK  217  A    between atoms: _532  and  _533
REMARK  218  A    between atoms: _532  and  _535
REMARK  219  A    between atoms: _535  and  _536
REMARK  220  A    between atoms: _541  and  _543
REMARK  221  A    between atoms: _543  and  _544
REMARK  222  A    between atoms: _543  and  _546
REMARK  223  A    between atoms: _546  and  _547
REMARK  224  A    between atoms: _552  and  _554
REMARK  225  A    between atoms: _554  and  _555
REMARK  226  A    between atoms: _554  and  _557
REMARK  227  A    between atoms: _560  and  _562
REMARK  228  A    between atoms: _562  and  _563
REMARK  229  A    between atoms: _562  and  _565
REMARK  230  A    between atoms: _565  and  _566
REMARK  231  A    between atoms: _571  and  _572
REMARK                            x       y       z     vdW  Elec       q    Type
REMARK                         _______ _______ _______ _____ _____    ______ ____
ROOT
ATOM      1  O   HOH     1      10.099  14.952   9.857  0.00  0.00    +0.000 OA
ENDROOT
TORSDOF 0
REMARK  Name = ../refined-set-2016/2i2c/2i2c_pocket.pdb
REMARK  231 active torsions:
REMARK  status: ('A' for Active; 'I' for Inactive)
REMARK    1  A    between atoms: _1  and  _3
REMARK    2  A    between atoms: _3  and  _4
REMARK    3  A    between atoms: _6  and  _8
REMARK    4  A    between atoms: _8  and  _9
REMARK    5  A    between atoms: _8  and  _11
REMARK    6  A    between atoms: _11  and  _12
REMARK    7  A    between atoms: _15  and  _17
REMARK    8  A    between atoms: _17  and  _18
REMARK    9  A    between atoms: _20  and  _22
REMARK   10  A    between atoms: _22  and  _23
REMARK   11  A    between atoms: _22  and  _25
REMARK   12  A    between atoms: _25  and  _26
REMARK   13  A    between atoms: _29  and  _31
REMARK   14  A    between atoms: _31  and  _32
REMARK   15  A    between atoms: _31  and  _34
REMARK   16  A    between atoms: _34  and  _35
REMARK   17  A    between atoms: _41  and  _43
REMARK   18  A    between atoms: _43  and  _44
REMARK   19  A    between atoms: _43  and  _46
REMARK   20  A    between atoms: _46  and  _47
REMARK   21  A    between atoms: _50  and  _52
REMARK   22  A    between atoms: _52  and  _53
REMARK   23  A    between atoms: _52  and  _55
REMARK   24  A    between atoms: _55  and  _56
REMARK   25  A    between atoms: _58  and  _60
REMARK   26  A    between atoms: _60  and  _61
REMARK   27  A    between atoms: _60  and  _63
REMARK   28  A    between atoms: _63  and  _64
REMARK   29  A    between atoms: _69  and  _71
REMARK   30  A    between atoms: _71  and  _72
REMARK   31  A    between atoms: _71  and  _74
REMARK   32  A    between atoms: _74  and  _75
REMARK   33  A    between atoms: _80  and  _82
REMARK   34  A    between atoms: _82  and  _83
REMARK   35  A    between atoms: _82  and  _85
REMARK   36  A    between atoms: _85  and  _86
REMARK   37  A    between atoms: _89  and  _91
REMARK   38  A    between atoms: _91  and  _92
REMARK   39  A    between atoms: _94  and  _96
REMARK   40  A    between atoms: _96  and  _97
REMARK   41  A    between atoms: _96  and  _99
REMARK   42  A    between atoms: _99  and  _100
REMARK   43  A    between atoms: _106  and  _108
REMARK   44  A    between atoms: _108  and  _109
REMARK   45  A    between atoms: _108  and  _111
REMARK   46  A    between atoms: _111  and  _112
REMARK   47  A    between atoms: _117  and  _118
REMARK   48  A    between atoms: _120  and  _122
REMARK   49  A    between atoms: _122  and  _123
REMARK   50  A    between atoms: _126  and  _128
REMARK   51  A    between atoms: _128  and  _129
REMARK   52  A    between atoms: _132  and  _134
REMARK   53  A    between atoms: _134  and  _135
REMARK   54  A    between atoms: _134  and  _137
REMARK   55  A    between atoms: _137  and  _138
REMARK   56  A    between atoms: _141  and  _143
REMARK   57  A    between atoms: _143  and  _144
REMARK   58  A    between atoms: _143  and  _146
REMARK   59  A    between atoms: _146  and  _147
REMARK   60  A    between atoms: _152  and  _154
REMARK   61  A    between atoms: _154  and  _155
REMARK   62  A    between atoms: _154  and  _157
REMARK   63  A    between atoms: _157  and  _158
REMARK   64  A    between atoms: _158  and  _159
REMARK   65  A    between atoms: _162  and  _164
REMARK   66  A    between atoms: _164  and  _165
REMARK   67  A    between atoms: _164  and  _167
REMARK   68  A    between atoms: _167  and  _168
REMARK   69  A    between atoms: _170  and  _172
REMARK   70  A    between atoms: _172  and  _173
REMARK   71  A    between atoms: _172  and  _175
REMARK   72  A    between atoms: _175  and  _176
REMARK   73  A    between atoms: _179  and  _181
REMARK   74  A    between atoms: _181  and  _182
REMARK   75  A    between atoms: _181  and  _184
REMARK   76  A    between atoms: _184  and  _185
REMARK   77  A    between atoms: _185  and  _186
REMARK   78  A    between atoms: _186  and  _187
REMARK   79  A    between atoms: _187  and  _188
REMARK   80  A    between atoms: _192  and  _194
REMARK   81  A    between atoms: _194  and  _195
REMARK   82  A    between atoms: _194  and  _197
REMARK   83  A    between atoms: _199  and  _201
REMARK   84  A    between atoms: _201  and  _202
REMARK   85  A    between atoms: _201  and  _204
REMARK   86  A    between atoms: _204  and  _205
REMARK   87  A    between atoms: _207  and  _209
REMARK   88  A    between atoms: _209  and  _210
REMARK   89  A    between atoms: _209  and  _212
REMARK   90  A    between atoms: _212  and  _213
REMARK   91  A    between atoms: _217  and  _218
REMARK   92  A    between atoms: _223  and  _225
REMARK   93  A    between atoms: _225  and  _226
REMARK   94  A    between atoms: _225  and  _228
REMARK   95  A    between atoms: _228  and  _229
REMARK   96  A    between atoms: _231  and  _233
REMARK   97  A    between atoms: _233  and  _234
REMARK   98  A    between atoms: _236  and  _238
REMARK   99  A    between atoms: _238  and  _239
REMARK  100  A    between atoms: _238  and  _241
REMARK  101  A    between atoms: _241  and  _242
REMARK  102  A    between atoms: _245  and  _247
REMARK  103  A    between atoms: _247  and  _248
REMARK  104  A    between atoms: _247  and  _250
REMARK  105  A    between atoms: _250  and  _251
REMARK  106  A    between atoms: _254  and  _256
REMARK  107  A    between atoms: _256  and  _257
REMARK  108  A    between atoms: _260  and  _262
REMARK  109  A    between atoms: _262  and  _263
REMARK  110  A    between atoms: _262  and  _265
REMARK  111  A    between atoms: _265  and  _266
REMARK  112  A    between atoms: _271  and  _272
REMARK  113  A    between atoms: _274  and  _276
REMARK  114  A    between atoms: _276  and  _277
REMARK  115  A    between atoms: _276  and  _279
REMARK  116  A    between atoms: _279  and  _280
REMARK  117  A    between atoms: _285  and  _287
REMARK  118  A    between atoms: _287  and  _288
REMARK  119  A    between atoms: _287  and  _290
REMARK  120  A    between atoms: _290  and  _291
REMARK  121  A    between atoms: _291  and  _292
REMARK  122  A    between atoms: _292  and  _293
REMARK  123  A    between atoms: _293  and  _294
REMARK  124  A    between atoms: _298  and  _300
REMARK  125  A    between atoms: _300  and  _301
REMARK  126  A    between atoms: _300  and  _303
REMARK  127  A    between atoms: _303  and  _304
REMARK  128  A    between atoms: _306  and  _308
REMARK  129  A    between atoms: _308  and  _309
REMARK  130  A    between atoms: _308  and  _311
REMARK  131  A    between atoms: _311  and  _312
REMARK  132  A    between atoms: _315  and  _317
REMARK  133  A    between atoms: _317  and  _318
REMARK  134  A    between atoms: _317  and  _320
REMARK  135  A    between atoms: _320  and  _321
REMARK  136  A    between atoms: _324  and  _326
REMARK  137  A    between atoms: _326  and  _327
REMARK  138  A    between atoms: _326  and  _329
REMARK  139  A    between atoms: _329  and  _330
REMARK  140  A    between atoms: _332  and  _334
REMARK  141  A    between atoms: _334  and  _335
REMARK  142  A    between atoms: _334  and  _337
REMARK  143  A    between atoms: _340  and  _342
REMARK  144  A    between atoms: _342  and  _343
REMARK  145  A    between atoms: _342  and  _345
REMARK  146  A    between atoms: _345  and  _346
REMARK  147  A    between atoms: _349  and  _351
REMARK  148  A    between atoms: _351  and  _352
REMARK  149  A    between atoms: _351  and  _354
REMARK  150  A    between atoms: _354  and  _355
REMARK  151  A    between atoms: _360  and  _362
REMARK  152  A    between atoms: _362  and  _363
REMARK  153  A    between atoms: _362  and  _365
REMARK  154  A    between atoms: _365  and  _366
REMARK  155  A    between atoms: _369  and  _371
REMARK  156  A    between atoms: _371  and  _372
REMARK  157  A    between atoms: _371  and  _374
REMARK  158  A    between atoms: _374  and  _375
REMARK  159  A    between atoms: _381  and  _383
REMARK  160  A    between atoms: _383  and  _384
REMARK  161  A    between atoms: _383  and  _386
REMARK  162  A    between atoms: _386  and  _387
REMARK  163  A    between atoms: _387  and  _388
REMARK  164  A    between atoms: _388  and  _389
REMARK  165  A    between atoms: _398  and  _400
REMARK  166  A    between atoms: _400  and  _401
REMARK  167  A    between atoms: _400  and  _403
REMARK  168  A    between atoms: _406  and  _408
REMARK  169  A    between atoms: _408  and  _409
REMARK  170  A    between atoms: _408  and  _411
REMARK  171  A    between atoms: _411  and  _412
REMARK  172  A    between atoms: _414  and  _416
REMARK  173  A    between atoms: _416  and  _417
REMARK  174  A    between atoms: _416  and  _419
REMARK  175  A    between atoms: _419  and  _420
REMARK  176  A    between atoms: _426  and  _428
REMARK  177  A    between atoms: _428  and  _429
REMARK  178  A    between atoms: _432  and  _433
REMARK  179  A    between atoms: _438  and  _440
REMARK  180  A    between atoms: _440  and  _441
REMARK  181  A    between atoms: _440  and  _443
REMARK  182  A    between atoms: _443  and  _444
REMARK  183  A    between atoms: _450  and  _452
REMARK  184  A    between atoms: _452  and  _453
REMARK  185  A    between atoms: _452  and  _455
REMARK  186  A    between atoms: _455  and  _456
REMARK  187  A    between atoms: _462  and  _464
REMARK  188  A    between atoms: _464  and  _465
REMARK  189  A    between atoms: _464  and  _467
REMARK  190  A    between atoms: _467  and  _468
REMARK  191  A    between atoms: _468  and  _469
REMARK  192  A    between atoms: _469  and  _470
REMARK  193  A    between atoms: _479  and  _481
REMARK  194  A    between atoms: _481  and  _482
REMARK  195  A    between atoms: _484  and  _486
REMARK  196  A    between atoms: _486  and  _487
REMARK  197  A    between atoms: _486  and  _489
REMARK  198  A    between atoms: _489  and  _490
REMARK  199  A    between atoms: _493  and  _495
REMARK  200  A    between atoms: _495  and  _496
REMARK  201  A    between atoms: _498  and  _500
REMARK  202  A    between atoms: _500  and  _501
REMARK  203  A    between atoms: _500  and  _503
REMARK  204  A    between atoms: _503  and  _504
REMARK  205  A    between atoms: _504  and  _505
REMARK  206  A    between atoms: _507  and  _509
REMARK  207  A    between atoms: _509  and  _510
REMARK  208  A    between atoms: _513  and  _515
REMARK  209  A    between atoms: _515  and  _516
REMARK  210  A    between atoms: _515  and  _518
REMARK  211  A    between atoms: _518  and  _519
REMARK  212  A    between atoms: _521  and  _523
REMARK  213  A    between atoms: _523  and  _524
REMARK  214  A    between atoms: _523  and  _526
REMARK  215  A    between atoms: _526  and  _527
REMARK  216  A    between atoms: _530  and  _532
REMARK  217  A    between atoms: _532  and  _533
REMARK  218  A    between atoms: _532  and  _535
REMARK  219  A    between atoms: _535  and  _536
REMARK  220  A    between atoms: _541  and  _543
REMARK  221  A    between atoms: _543  and  _544
REMARK  222  A    between atoms: _543  and  _546
REMARK  223  A    between atoms: _546  and  _547
REMARK  224  A    between atoms: _552  and  _554
REMARK  225  A    between atoms: _554  and  _555
REMARK  226  A    between atoms: _554  and  _557
REMARK  227  A    between atoms: _560  and  _562
REMARK  228  A    between atoms: _562  and  _563
REMARK  229  A    between atoms: _562  and  _565
REMARK  230  A    between atoms: _565  and  _566
REMARK  231  A    between atoms: _571  and  _572
REMARK                            x       y       z     vdW  Elec       q    Type
REMARK                         _______ _______ _______ _____ _____    ______ ____
ROOT
ATOM      1  O   HOH     1      13.861   5.946  11.042  0.00  0.00    +0.000 OA
ENDROOT
TORSDOF 0
REMARK  Name = ../refined-set-2016/2i2c/2i2c_pocket.pdb
REMARK  231 active torsions:
REMARK  status: ('A' for Active; 'I' for Inactive)
REMARK    1  A    between atoms: _1  and  _3
REMARK    2  A    between atoms: _3  and  _4
REMARK    3  A    between atoms: _6  and  _8
REMARK    4  A    between atoms: _8  and  _9
REMARK    5  A    between atoms: _8  and  _11
REMARK    6  A    between atoms: _11  and  _12
REMARK    7  A    between atoms: _15  and  _17
REMARK    8  A    between atoms: _17  and  _18
REMARK    9  A    between atoms: _20  and  _22
REMARK   10  A    between atoms: _22  and  _23
REMARK   11  A    between atoms: _22  and  _25
REMARK   12  A    between atoms: _25  and  _26
REMARK   13  A    between atoms: _29  and  _31
REMARK   14  A    between atoms: _31  and  _32
REMARK   15  A    between atoms: _31  and  _34
REMARK   16  A    between atoms: _34  and  _35
REMARK   17  A    between atoms: _41  and  _43
REMARK   18  A    between atoms: _43  and  _44
REMARK   19  A    between atoms: _43  and  _46
REMARK   20  A    between atoms: _46  and  _47
REMARK   21  A    between atoms: _50  and  _52
REMARK   22  A    between atoms: _52  and  _53
REMARK   23  A    between atoms: _52  and  _55
REMARK   24  A    between atoms: _55  and  _56
REMARK   25  A    between atoms: _58  and  _60
REMARK   26  A    between atoms: _60  and  _61
REMARK   27  A    between atoms: _60  and  _63
REMARK   28  A    between atoms: _63  and  _64
REMARK   29  A    between atoms: _69  and  _71
REMARK   30  A    between atoms: _71  and  _72
REMARK   31  A    between atoms: _71  and  _74
REMARK   32  A    between atoms: _74  and  _75
REMARK   33  A    between atoms: _80  and  _82
REMARK   34  A    between atoms: _82  and  _83
REMARK   35  A    between atoms: _82  and  _85
REMARK   36  A    between atoms: _85  and  _86
REMARK   37  A    between atoms: _89  and  _91
REMARK   38  A    between atoms: _91  and  _92
REMARK   39  A    between atoms: _94  and  _96
REMARK   40  A    between atoms: _96  and  _97
REMARK   41  A    between atoms: _96  and  _99
REMARK   42  A    between atoms: _99  and  _100
REMARK   43  A    between atoms: _106  and  _108
REMARK   44  A    between atoms: _108  and  _109
REMARK   45  A    between atoms: _108  and  _111
REMARK   46  A    between atoms: _111  and  _112
REMARK   47  A    between atoms: _117  and  _118
REMARK   48  A    between atoms: _120  and  _122
REMARK   49  A    between atoms: _122  and  _123
REMARK   50  A    between atoms: _126  and  _128
REMARK   51  A    between atoms: _128  and  _129
REMARK   52  A    between atoms: _132  and  _134
REMARK   53  A    between atoms: _134  and  _135
REMARK   54  A    between atoms: _134  and  _137
REMARK   55  A    between atoms: _137  and  _138
REMARK   56  A    between atoms: _141  and  _143
REMARK   57  A    between atoms: _143  and  _144
REMARK   58  A    between atoms: _143  and  _146
REMARK   59  A    between atoms: _146  and  _147
REMARK   60  A    between atoms: _152  and  _154
REMARK   61  A    between atoms: _154  and  _155
REMARK   62  A    between atoms: _154  and  _157
REMARK   63  A    between atoms: _157  and  _158
REMARK   64  A    between atoms: _158  and  _159
REMARK   65  A    between atoms: _162  and  _164
REMARK   66  A    between atoms: _164  and  _165
REMARK   67  A    between atoms: _164  and  _167
REMARK   68  A    between atoms: _167  and  _168
REMARK   69  A    between atoms: _170  and  _172
REMARK   70  A    between atoms: _172  and  _173
REMARK   71  A    between atoms: _172  and  _175
REMARK   72  A    between atoms: _175  and  _176
REMARK   73  A    between atoms: _179  and  _181
REMARK   74  A    between atoms: _181  and  _182
REMARK   75  A    between atoms: _181  and  _184
REMARK   76  A    between atoms: _184  and  _185
REMARK   77  A    between atoms: _185  and  _186
REMARK   78  A    between atoms: _186  and  _187
REMARK   79  A    between atoms: _187  and  _188
REMARK   80  A    between atoms: _192  and  _194
REMARK   81  A    between atoms: _194  and  _195
REMARK   82  A    between atoms: _194  and  _197
REMARK   83  A    between atoms: _199  and  _201
REMARK   84  A    between atoms: _201  and  _202
REMARK   85  A    between atoms: _201  and  _204
REMARK   86  A    between atoms: _204  and  _205
REMARK   87  A    between atoms: _207  and  _209
REMARK   88  A    between atoms: _209  and  _210
REMARK   89  A    between atoms: _209  and  _212
REMARK   90  A    between atoms: _212  and  _213
REMARK   91  A    between atoms: _217  and  _218
REMARK   92  A    between atoms: _223  and  _225
REMARK   93  A    between atoms: _225  and  _226
REMARK   94  A    between atoms: _225  and  _228
REMARK   95  A    between atoms: _228  and  _229
REMARK   96  A    between atoms: _231  and  _233
REMARK   97  A    between atoms: _233  and  _234
REMARK   98  A    between atoms: _236  and  _238
REMARK   99  A    between atoms: _238  and  _239
REMARK  100  A    between atoms: _238  and  _241
REMARK  101  A    between atoms: _241  and  _242
REMARK  102  A    between atoms: _245  and  _247
REMARK  103  A    between atoms: _247  and  _248
REMARK  104  A    between atoms: _247  and  _250
REMARK  105  A    between atoms: _250  and  _251
REMARK  106  A    between atoms: _254  and  _256
REMARK  107  A    between atoms: _256  and  _257
REMARK  108  A    between atoms: _260  and  _262
REMARK  109  A    between atoms: _262  and  _263
REMARK  110  A    between atoms: _262  and  _265
REMARK  111  A    between atoms: _265  and  _266
REMARK  112  A    between atoms: _271  and  _272
REMARK  113  A    between atoms: _274  and  _276
REMARK  114  A    between atoms: _276  and  _277
REMARK  115  A    between atoms: _276  and  _279
REMARK  116  A    between atoms: _279  and  _280
REMARK  117  A    between atoms: _285  and  _287
REMARK  118  A    between atoms: _287  and  _288
REMARK  119  A    between atoms: _287  and  _290
REMARK  120  A    between atoms: _290  and  _291
REMARK  121  A    between atoms: _291  and  _292
REMARK  122  A    between atoms: _292  and  _293
REMARK  123  A    between atoms: _293  and  _294
REMARK  124  A    between atoms: _298  and  _300
REMARK  125  A    between atoms: _300  and  _301
REMARK  126  A    between atoms: _300  and  _303
REMARK  127  A    between atoms: _303  and  _304
REMARK  128  A    between atoms: _306  and  _308
REMARK  129  A    between atoms: _308  and  _309
REMARK  130  A    between atoms: _308  and  _311
REMARK  131  A    between atoms: _311  and  _312
REMARK  132  A    between atoms: _315  and  _317
REMARK  133  A    between atoms: _317  and  _318
REMARK  134  A    between atoms: _317  and  _320
REMARK  135  A    between atoms: _320  and  _321
REMARK  136  A    between atoms: _324  and  _326
REMARK  137  A    between atoms: _326  and  _327
REMARK  138  A    between atoms: _326  and  _329
REMARK  139  A    between atoms: _329  and  _330
REMARK  140  A    between atoms: _332  and  _334
REMARK  141  A    between atoms: _334  and  _335
REMARK  142  A    between atoms: _334  and  _337
REMARK  143  A    between atoms: _340  and  _342
REMARK  144  A    between atoms: _342  and  _343
REMARK  145  A    between atoms: _342  and  _345
REMARK  146  A    between atoms: _345  and  _346
REMARK  147  A    between atoms: _349  and  _351
REMARK  148  A    between atoms: _351  and  _352
REMARK  149  A    between atoms: _351  and  _354
REMARK  150  A    between atoms: _354  and  _355
REMARK  151  A    between atoms: _360  and  _362
REMARK  152  A    between atoms: _362  and  _363
REMARK  153  A    between atoms: _362  and  _365
REMARK  154  A    between atoms: _365  and  _366
REMARK  155  A    between atoms: _369  and  _371
REMARK  156  A    between atoms: _371  and  _372
REMARK  157  A    between atoms: _371  and  _374
REMARK  158  A    between atoms: _374  and  _375
REMARK  159  A    between atoms: _381  and  _383
REMARK  160  A    between atoms: _383  and  _384
REMARK  161  A    between atoms: _383  and  _386
REMARK  162  A    between atoms: _386  and  _387
REMARK  163  A    between atoms: _387  and  _388
REMARK  164  A    between atoms: _388  and  _389
REMARK  165  A    between atoms: _398  and  _400
REMARK  166  A    between atoms: _400  and  _401
REMARK  167  A    between atoms: _400  and  _403
REMARK  168  A    between atoms: _406  and  _408
REMARK  169  A    between atoms: _408  and  _409
REMARK  170  A    between atoms: _408  and  _411
REMARK  171  A    between atoms: _411  and  _412
REMARK  172  A    between atoms: _414  and  _416
REMARK  173  A    between atoms: _416  and  _417
REMARK  174  A    between atoms: _416  and  _419
REMARK  175  A    between atoms: _419  and  _420
REMARK  176  A    between atoms: _426  and  _428
REMARK  177  A    between atoms: _428  and  _429
REMARK  178  A    between atoms: _432  and  _433
REMARK  179  A    between atoms: _438  and  _440
REMARK  180  A    between atoms: _440  and  _441
REMARK  181  A    between atoms: _440  and  _443
REMARK  182  A    between atoms: _443  and  _444
REMARK  183  A    between atoms: _450  and  _452
REMARK  184  A    between atoms: _452  and  _453
REMARK  185  A    between atoms: _452  and  _455
REMARK  186  A    between atoms: _455  and  _456
REMARK  187  A    between atoms: _462  and  _464
REMARK  188  A    between atoms: _464  and  _465
REMARK  189  A    between atoms: _464  and  _467
REMARK  190  A    between atoms: _467  and  _468
REMARK  191  A    between atoms: _468  and  _469
REMARK  192  A    between atoms: _469  and  _470
REMARK  193  A    between atoms: _479  and  _481
REMARK  194  A    between atoms: _481  and  _482
REMARK  195  A    between atoms: _484  and  _486
REMARK  196  A    between atoms: _486  and  _487
REMARK  197  A    between atoms: _486  and  _489
REMARK  198  A    between atoms: _489  and  _490
REMARK  199  A    between atoms: _493  and  _495
REMARK  200  A    between atoms: _495  and  _496
REMARK  201  A    between atoms: _498  and  _500
REMARK  202  A    between atoms: _500  and  _501
REMARK  203  A    between atoms: _500  and  _503
REMARK  204  A    between atoms: _503  and  _504
REMARK  205  A    between atoms: _504  and  _505
REMARK  206  A    between atoms: _507  and  _509
REMARK  207  A    between atoms: _509  and  _510
REMARK  208  A    between atoms: _513  and  _515
REMARK  209  A    between atoms: _515  and  _516
REMARK  210  A    between atoms: _515  and  _518
REMARK  211  A    between atoms: _518  and  _519
REMARK  212  A    between atoms: _521  and  _523
REMARK  213  A    between atoms: _523  and  _524
REMARK  214  A    between atoms: _523  and  _526
REMARK  215  A    between atoms: _526  and  _527
REMARK  216  A    between atoms: _530  and  _532
REMARK  217  A    between atoms: _532  and  _533
REMARK  218  A    between atoms: _532  and  _535
REMARK  219  A    between atoms: _535  and  _536
REMARK  220  A    between atoms: _541  and  _543
REMARK  221  A    between atoms: _543  and  _544
REMARK  222  A    between atoms: _543  and  _546
REMARK  223  A    between atoms: _546  and  _547
REMARK  224  A    between atoms: _552  and  _554
REMARK  225  A    between atoms: _554  and  _555
REMARK  226  A    between atoms: _554  and  _557
REMARK  227  A    between atoms: _560  and  _562
REMARK  228  A    between atoms: _562  and  _563
REMARK  229  A    between atoms: _562  and  _565
REMARK  230  A    between atoms: _565  and  _566
REMARK  231  A    between atoms: _571  and  _572
REMARK                            x       y       z     vdW  Elec       q    Type
REMARK                         _______ _______ _______ _____ _____    ______ ____
ROOT
ATOM      1  O   HOH     1      12.985   5.941   4.253  0.00  0.00    +0.000 OA
ENDROOT
TORSDOF 0
REMARK  Name = ../refined-set-2016/2i2c/2i2c_pocket.pdb
REMARK  231 active torsions:
REMARK  status: ('A' for Active; 'I' for Inactive)
REMARK    1  A    between atoms: _1  and  _3
REMARK    2  A    between atoms: _3  and  _4
REMARK    3  A    between atoms: _6  and  _8
REMARK    4  A    between atoms: _8  and  _9
REMARK    5  A    between atoms: _8  and  _11
REMARK    6  A    between atoms: _11  and  _12
REMARK    7  A    between atoms: _15  and  _17
REMARK    8  A    between atoms: _17  and  _18
REMARK    9  A    between atoms: _20  and  _22
REMARK   10  A    between atoms: _22  and  _23
REMARK   11  A    between atoms: _22  and  _25
REMARK   12  A    between atoms: _25  and  _26
REMARK   13  A    between atoms: _29  and  _31
REMARK   14  A    between atoms: _31  and  _32
REMARK   15  A    between atoms: _31  and  _34
REMARK   16  A    between atoms: _34  and  _35
REMARK   17  A    between atoms: _41  and  _43
REMARK   18  A    between atoms: _43  and  _44
REMARK   19  A    between atoms: _43  and  _46
REMARK   20  A    between atoms: _46  and  _47
REMARK   21  A    between atoms: _50  and  _52
REMARK   22  A    between atoms: _52  and  _53
REMARK   23  A    between atoms: _52  and  _55
REMARK   24  A    between atoms: _55  and  _56
REMARK   25  A    between atoms: _58  and  _60
REMARK   26  A    between atoms: _60  and  _61
REMARK   27  A    between atoms: _60  and  _63
REMARK   28  A    between atoms: _63  and  _64
REMARK   29  A    between atoms: _69  and  _71
REMARK   30  A    between atoms: _71  and  _72
REMARK   31  A    between atoms: _71  and  _74
REMARK   32  A    between atoms: _74  and  _75
REMARK   33  A    between atoms: _80  and  _82
REMARK   34  A    between atoms: _82  and  _83
REMARK   35  A    between atoms: _82  and  _85
REMARK   36  A    between atoms: _85  and  _86
REMARK   37  A    between atoms: _89  and  _91
REMARK   38  A    between atoms: _91  and  _92
REMARK   39  A    between atoms: _94  and  _96
REMARK   40  A    between atoms: _96  and  _97
REMARK   41  A    between atoms: _96  and  _99
REMARK   42  A    between atoms: _99  and  _100
REMARK   43  A    between atoms: _106  and  _108
REMARK   44  A    between atoms: _108  and  _109
REMARK   45  A    between atoms: _108  and  _111
REMARK   46  A    between atoms: _111  and  _112
REMARK   47  A    between atoms: _117  and  _118
REMARK   48  A    between atoms: _120  and  _122
REMARK   49  A    between atoms: _122  and  _123
REMARK   50  A    between atoms: _126  and  _128
REMARK   51  A    between atoms: _128  and  _129
REMARK   52  A    between atoms: _132  and  _134
REMARK   53  A    between atoms: _134  and  _135
REMARK   54  A    between atoms: _134  and  _137
REMARK   55  A    between atoms: _137  and  _138
REMARK   56  A    between atoms: _141  and  _143
REMARK   57  A    between atoms: _143  and  _144
REMARK   58  A    between atoms: _143  and  _146
REMARK   59  A    between atoms: _146  and  _147
REMARK   60  A    between atoms: _152  and  _154
REMARK   61  A    between atoms: _154  and  _155
REMARK   62  A    between atoms: _154  and  _157
REMARK   63  A    between atoms: _157  and  _158
REMARK   64  A    between atoms: _158  and  _159
REMARK   65  A    between atoms: _162  and  _164
REMARK   66  A    between atoms: _164  and  _165
REMARK   67  A    between atoms: _164  and  _167
REMARK   68  A    between atoms: _167  and  _168
REMARK   69  A    between atoms: _170  and  _172
REMARK   70  A    between atoms: _172  and  _173
REMARK   71  A    between atoms: _172  and  _175
REMARK   72  A    between atoms: _175  and  _176
REMARK   73  A    between atoms: _179  and  _181
REMARK   74  A    between atoms: _181  and  _182
REMARK   75  A    between atoms: _181  and  _184
REMARK   76  A    between atoms: _184  and  _185
REMARK   77  A    between atoms: _185  and  _186
REMARK   78  A    between atoms: _186  and  _187
REMARK   79  A    between atoms: _187  and  _188
REMARK   80  A    between atoms: _192  and  _194
REMARK   81  A    between atoms: _194  and  _195
REMARK   82  A    between atoms: _194  and  _197
REMARK   83  A    between atoms: _199  and  _201
REMARK   84  A    between atoms: _201  and  _202
REMARK   85  A    between atoms: _201  and  _204
REMARK   86  A    between atoms: _204  and  _205
REMARK   87  A    between atoms: _207  and  _209
REMARK   88  A    between atoms: _209  and  _210
REMARK   89  A    between atoms: _209  and  _212
REMARK   90  A    between atoms: _212  and  _213
REMARK   91  A    between atoms: _217  and  _218
REMARK   92  A    between atoms: _223  and  _225
REMARK   93  A    between atoms: _225  and  _226
REMARK   94  A    between atoms: _225  and  _228
REMARK   95  A    between atoms: _228  and  _229
REMARK   96  A    between atoms: _231  and  _233
REMARK   97  A    between atoms: _233  and  _234
REMARK   98  A    between atoms: _236  and  _238
REMARK   99  A    between atoms: _238  and  _239
REMARK  100  A    between atoms: _238  and  _241
REMARK  101  A    between atoms: _241  and  _242
REMARK  102  A    between atoms: _245  and  _247
REMARK  103  A    between atoms: _247  and  _248
REMARK  104  A    between atoms: _247  and  _250
REMARK  105  A    between atoms: _250  and  _251
REMARK  106  A    between atoms: _254  and  _256
REMARK  107  A    between atoms: _256  and  _257
REMARK  108  A    between atoms: _260  and  _262
REMARK  109  A    between atoms: _262  and  _263
REMARK  110  A    between atoms: _262  and  _265
REMARK  111  A    between atoms: _265  and  _266
REMARK  112  A    between atoms: _271  and  _272
REMARK  113  A    between atoms: _274  and  _276
REMARK  114  A    between atoms: _276  and  _277
REMARK  115  A    between atoms: _276  and  _279
REMARK  116  A    between atoms: _279  and  _280
REMARK  117  A    between atoms: _285  and  _287
REMARK  118  A    between atoms: _287  and  _288
REMARK  119  A    between atoms: _287  and  _290
REMARK  120  A    between atoms: _290  and  _291
REMARK  121  A    between atoms: _291  and  _292
REMARK  122  A    between atoms: _292  and  _293
REMARK  123  A    between atoms: _293  and  _294
REMARK  124  A    between atoms: _298  and  _300
REMARK  125  A    between atoms: _300  and  _301
REMARK  126  A    between atoms: _300  and  _303
REMARK  127  A    between atoms: _303  and  _304
REMARK  128  A    between atoms: _306  and  _308
REMARK  129  A    between atoms: _308  and  _309
REMARK  130  A    between atoms: _308  and  _311
REMARK  131  A    between atoms: _311  and  _312
REMARK  132  A    between atoms: _315  and  _317
REMARK  133  A    between atoms: _317  and  _318
REMARK  134  A    between atoms: _317  and  _320
REMARK  135  A    between atoms: _320  and  _321
REMARK  136  A    between atoms: _324  and  _326
REMARK  137  A    between atoms: _326  and  _327
REMARK  138  A    between atoms: _326  and  _329
REMARK  139  A    between atoms: _329  and  _330
REMARK  140  A    between atoms: _332  and  _334
REMARK  141  A    between atoms: _334  and  _335
REMARK  142  A    between atoms: _334  and  _337
REMARK  143  A    between atoms: _340  and  _342
REMARK  144  A    between atoms: _342  and  _343
REMARK  145  A    between atoms: _342  and  _345
REMARK  146  A    between atoms: _345  and  _346
REMARK  147  A    between atoms: _349  and  _351
REMARK  148  A    between atoms: _351  and  _352
REMARK  149  A    between atoms: _351  and  _354
REMARK  150  A    between atoms: _354  and  _355
REMARK  151  A    between atoms: _360  and  _362
REMARK  152  A    between atoms: _362  and  _363
REMARK  153  A    between atoms: _362  and  _365
REMARK  154  A    between atoms: _365  and  _366
REMARK  155  A    between atoms: _369  and  _371
REMARK  156  A    between atoms: _371  and  _372
REMARK  157  A    between atoms: _371  and  _374
REMARK  158  A    between atoms: _374  and  _375
REMARK  159  A    between atoms: _381  and  _383
REMARK  160  A    between atoms: _383  and  _384
REMARK  161  A    between atoms: _383  and  _386
REMARK  162  A    between atoms: _386  and  _387
REMARK  163  A    between atoms: _387  and  _388
REMARK  164  A    between atoms: _388  and  _389
REMARK  165  A    between atoms: _398  and  _400
REMARK  166  A    between atoms: _400  and  _401
REMARK  167  A    between atoms: _400  and  _403
REMARK  168  A    between atoms: _406  and  _408
REMARK  169  A    between atoms: _408  and  _409
REMARK  170  A    between atoms: _408  and  _411
REMARK  171  A    between atoms: _411  and  _412
REMARK  172  A    between atoms: _414  and  _416
REMARK  173  A    between atoms: _416  and  _417
REMARK  174  A    between atoms: _416  and  _419
REMARK  175  A    between atoms: _419  and  _420
REMARK  176  A    between atoms: _426  and  _428
REMARK  177  A    between atoms: _428  and  _429
REMARK  178  A    between atoms: _432  and  _433
REMARK  179  A    between atoms: _438  and  _440
REMARK  180  A    between atoms: _440  and  _441
REMARK  181  A    between atoms: _440  and  _443
REMARK  182  A    between atoms: _443  and  _444
REMARK  183  A    between atoms: _450  and  _452
REMARK  184  A    between atoms: _452  and  _453
REMARK  185  A    between atoms: _452  and  _455
REMARK  186  A    between atoms: _455  and  _456
REMARK  187  A    between atoms: _462  and  _464
REMARK  188  A    between atoms: _464  and  _465
REMARK  189  A    between atoms: _464  and  _467
REMARK  190  A    between atoms: _467  and  _468
REMARK  191  A    between atoms: _468  and  _469
REMARK  192  A    between atoms: _469  and  _470
REMARK  193  A    between atoms: _479  and  _481
REMARK  194  A    between atoms: _481  and  _482
REMARK  195  A    between atoms: _484  and  _486
REMARK  196  A    between atoms: _486  and  _487
REMARK  197  A    between atoms: _486  and  _489
REMARK  198  A    between atoms: _489  and  _490
REMARK  199  A    between atoms: _493  and  _495
REMARK  200  A    between atoms: _495  and  _496
REMARK  201  A    between atoms: _498  and  _500
REMARK  202  A    between atoms: _500  and  _501
REMARK  203  A    between atoms: _500  and  _503
REMARK  204  A    between atoms: _503  and  _504
REMARK  205  A    between atoms: _504  and  _505
REMARK  206  A    between atoms: _507  and  _509
REMARK  207  A    between atoms: _509  and  _510
REMARK  208  A    between atoms: _513  and  _515
REMARK  209  A    between atoms: _515  and  _516
REMARK  210  A    between atoms: _515  and  _518
REMARK  211  A    between atoms: _518  and  _519
REMARK  212  A    between atoms: _521  and  _523
REMARK  213  A    between atoms: _523  and  _524
REMARK  214  A    between atoms: _523  and  _526
REMARK  215  A    between atoms: _526  and  _527
REMARK  216  A    between atoms: _530  and  _532
REMARK  217  A    between atoms: _532  and  _533
REMARK  218  A    between atoms: _532  and  _535
REMARK  219  A    between atoms: _535  and  _536
REMARK  220  A    between atoms: _541  and  _543
REMARK  221  A    between atoms: _543  and  _544
REMARK  222  A    between atoms: _543  and  _546
REMARK  223  A    between atoms: _546  and  _547
REMARK  224  A    between atoms: _552  and  _554
REMARK  225  A    between atoms: _554  and  _555
REMARK  226  A    between atoms: _554  and  _557
REMARK  227  A    between atoms: _560  and  _562
REMARK  228  A    between atoms: _562  and  _563
REMARK  229  A    between atoms: _562  and  _565
REMARK  230  A    between atoms: _565  and  _566
REMARK  231  A    between atoms: _571  and  _572
REMARK                            x       y       z     vdW  Elec       q    Type
REMARK                         _______ _______ _______ _____ _____    ______ ____
ROOT
ATOM      1  O   HOH     1      14.993   9.927  17.515  0.00  0.00    +0.000 OA
ENDROOT
TORSDOF 0
REMARK  Name = ../refined-set-2016/2i2c/2i2c_pocket.pdb
REMARK  231 active torsions:
REMARK  status: ('A' for Active; 'I' for Inactive)
REMARK    1  A    between atoms: _1  and  _3
REMARK    2  A    between atoms: _3  and  _4
REMARK    3  A    between atoms: _6  and  _8
REMARK    4  A    between atoms: _8  and  _9
REMARK    5  A    between atoms: _8  and  _11
REMARK    6  A    between atoms: _11  and  _12
REMARK    7  A    between atoms: _15  and  _17
REMARK    8  A    between atoms: _17  and  _18
REMARK    9  A    between atoms: _20  and  _22
REMARK   10  A    between atoms: _22  and  _23
REMARK   11  A    between atoms: _22  and  _25
REMARK   12  A    between atoms: _25  and  _26
REMARK   13  A    between atoms: _29  and  _31
REMARK   14  A    between atoms: _31  and  _32
REMARK   15  A    between atoms: _31  and  _34
REMARK   16  A    between atoms: _34  and  _35
REMARK   17  A    between atoms: _41  and  _43
REMARK   18  A    between atoms: _43  and  _44
REMARK   19  A    between atoms: _43  and  _46
REMARK   20  A    between atoms: _46  and  _47
REMARK   21  A    between atoms: _50  and  _52
REMARK   22  A    between atoms: _52  and  _53
REMARK   23  A    between atoms: _52  and  _55
REMARK   24  A    between atoms: _55  and  _56
REMARK   25  A    between atoms: _58  and  _60
REMARK   26  A    between atoms: _60  and  _61
REMARK   27  A    between atoms: _60  and  _63
REMARK   28  A    between atoms: _63  and  _64
REMARK   29  A    between atoms: _69  and  _71
REMARK   30  A    between atoms: _71  and  _72
REMARK   31  A    between atoms: _71  and  _74
REMARK   32  A    between atoms: _74  and  _75
REMARK   33  A    between atoms: _80  and  _82
REMARK   34  A    between atoms: _82  and  _83
REMARK   35  A    between atoms: _82  and  _85
REMARK   36  A    between atoms: _85  and  _86
REMARK   37  A    between atoms: _89  and  _91
REMARK   38  A    between atoms: _91  and  _92
REMARK   39  A    between atoms: _94  and  _96
REMARK   40  A    between atoms: _96  and  _97
REMARK   41  A    between atoms: _96  and  _99
REMARK   42  A    between atoms: _99  and  _100
REMARK   43  A    between atoms: _106  and  _108
REMARK   44  A    between atoms: _108  and  _109
REMARK   45  A    between atoms: _108  and  _111
REMARK   46  A    between atoms: _111  and  _112
REMARK   47  A    between atoms: _117  and  _118
REMARK   48  A    between atoms: _120  and  _122
REMARK   49  A    between atoms: _122  and  _123
REMARK   50  A    between atoms: _126  and  _128
REMARK   51  A    between atoms: _128  and  _129
REMARK   52  A    between atoms: _132  and  _134
REMARK   53  A    between atoms: _134  and  _135
REMARK   54  A    between atoms: _134  and  _137
REMARK   55  A    between atoms: _137  and  _138
REMARK   56  A    between atoms: _141  and  _143
REMARK   57  A    between atoms: _143  and  _144
REMARK   58  A    between atoms: _143  and  _146
REMARK   59  A    between atoms: _146  and  _147
REMARK   60  A    between atoms: _152  and  _154
REMARK   61  A    between atoms: _154  and  _155
REMARK   62  A    between atoms: _154  and  _157
REMARK   63  A    between atoms: _157  and  _158
REMARK   64  A    between atoms: _158  and  _159
REMARK   65  A    between atoms: _162  and  _164
REMARK   66  A    between atoms: _164  and  _165
REMARK   67  A    between atoms: _164  and  _167
REMARK   68  A    between atoms: _167  and  _168
REMARK   69  A    between atoms: _170  and  _172
REMARK   70  A    between atoms: _172  and  _173
REMARK   71  A    between atoms: _172  and  _175
REMARK   72  A    between atoms: _175  and  _176
REMARK   73  A    between atoms: _179  and  _181
REMARK   74  A    between atoms: _181  and  _182
REMARK   75  A    between atoms: _181  and  _184
REMARK   76  A    between atoms: _184  and  _185
REMARK   77  A    between atoms: _185  and  _186
REMARK   78  A    between atoms: _186  and  _187
REMARK   79  A    between atoms: _187  and  _188
REMARK   80  A    between atoms: _192  and  _194
REMARK   81  A    between atoms: _194  and  _195
REMARK   82  A    between atoms: _194  and  _197
REMARK   83  A    between atoms: _199  and  _201
REMARK   84  A    between atoms: _201  and  _202
REMARK   85  A    between atoms: _201  and  _204
REMARK   86  A    between atoms: _204  and  _205
REMARK   87  A    between atoms: _207  and  _209
REMARK   88  A    between atoms: _209  and  _210
REMARK   89  A    between atoms: _209  and  _212
REMARK   90  A    between atoms: _212  and  _213
REMARK   91  A    between atoms: _217  and  _218
REMARK   92  A    between atoms: _223  and  _225
REMARK   93  A    between atoms: _225  and  _226
REMARK   94  A    between atoms: _225  and  _228
REMARK   95  A    between atoms: _228  and  _229
REMARK   96  A    between atoms: _231  and  _233
REMARK   97  A    between atoms: _233  and  _234
REMARK   98  A    between atoms: _236  and  _238
REMARK   99  A    between atoms: _238  and  _239
REMARK  100  A    between atoms: _238  and  _241
REMARK  101  A    between atoms: _241  and  _242
REMARK  102  A    between atoms: _245  and  _247
REMARK  103  A    between atoms: _247  and  _248
REMARK  104  A    between atoms: _247  and  _250
REMARK  105  A    between atoms: _250  and  _251
REMARK  106  A    between atoms: _254  and  _256
REMARK  107  A    between atoms: _256  and  _257
REMARK  108  A    between atoms: _260  and  _262
REMARK  109  A    between atoms: _262  and  _263
REMARK  110  A    between atoms: _262  and  _265
REMARK  111  A    between atoms: _265  and  _266
REMARK  112  A    between atoms: _271  and  _272
REMARK  113  A    between atoms: _274  and  _276
REMARK  114  A    between atoms: _276  and  _277
REMARK  115  A    between atoms: _276  and  _279
REMARK  116  A    between atoms: _279  and  _280
REMARK  117  A    between atoms: _285  and  _287
REMARK  118  A    between atoms: _287  and  _288
REMARK  119  A    between atoms: _287  and  _290
REMARK  120  A    between atoms: _290  and  _291
REMARK  121  A    between atoms: _291  and  _292
REMARK  122  A    between atoms: _292  and  _293
REMARK  123  A    between atoms: _293  and  _294
REMARK  124  A    between atoms: _298  and  _300
REMARK  125  A    between atoms: _300  and  _301
REMARK  126  A    between atoms: _300  and  _303
REMARK  127  A    between atoms: _303  and  _304
REMARK  128  A    between atoms: _306  and  _308
REMARK  129  A    between atoms: _308  and  _309
REMARK  130  A    between atoms: _308  and  _311
REMARK  131  A    between atoms: _311  and  _312
REMARK  132  A    between atoms: _315  and  _317
REMARK  133  A    between atoms: _317  and  _318
REMARK  134  A    between atoms: _317  and  _320
REMARK  135  A    between atoms: _320  and  _321
REMARK  136  A    between atoms: _324  and  _326
REMARK  137  A    between atoms: _326  and  _327
REMARK  138  A    between atoms: _326  and  _329
REMARK  139  A    between atoms: _329  and  _330
REMARK  140  A    between atoms: _332  and  _334
REMARK  141  A    between atoms: _334  and  _335
REMARK  142  A    between atoms: _334  and  _337
REMARK  143  A    between atoms: _340  and  _342
REMARK  144  A    between atoms: _342  and  _343
REMARK  145  A    between atoms: _342  and  _345
REMARK  146  A    between atoms: _345  and  _346
REMARK  147  A    between atoms: _349  and  _351
REMARK  148  A    between atoms: _351  and  _352
REMARK  149  A    between atoms: _351  and  _354
REMARK  150  A    between atoms: _354  and  _355
REMARK  151  A    between atoms: _360  and  _362
REMARK  152  A    between atoms: _362  and  _363
REMARK  153  A    between atoms: _362  and  _365
REMARK  154  A    between atoms: _365  and  _366
REMARK  155  A    between atoms: _369  and  _371
REMARK  156  A    between atoms: _371  and  _372
REMARK  157  A    between atoms: _371  and  _374
REMARK  158  A    between atoms: _374  and  _375
REMARK  159  A    between atoms: _381  and  _383
REMARK  160  A    between atoms: _383  and  _384
REMARK  161  A    between atoms: _383  and  _386
REMARK  162  A    between atoms: _386  and  _387
REMARK  163  A    between atoms: _387  and  _388
REMARK  164  A    between atoms: _388  and  _389
REMARK  165  A    between atoms: _398  and  _400
REMARK  166  A    between atoms: _400  and  _401
REMARK  167  A    between atoms: _400  and  _403
REMARK  168  A    between atoms: _406  and  _408
REMARK  169  A    between atoms: _408  and  _409
REMARK  170  A    between atoms: _408  and  _411
REMARK  171  A    between atoms: _411  and  _412
REMARK  172  A    between atoms: _414  and  _416
REMARK  173  A    between atoms: _416  and  _417
REMARK  174  A    between atoms: _416  and  _419
REMARK  175  A    between atoms: _419  and  _420
REMARK  176  A    between atoms: _426  and  _428
REMARK  177  A    between atoms: _428  and  _429
REMARK  178  A    between atoms: _432  and  _433
REMARK  179  A    between atoms: _438  and  _440
REMARK  180  A    between atoms: _440  and  _441
REMARK  181  A    between atoms: _440  and  _443
REMARK  182  A    between atoms: _443  and  _444
REMARK  183  A    between atoms: _450  and  _452
REMARK  184  A    between atoms: _452  and  _453
REMARK  185  A    between atoms: _452  and  _455
REMARK  186  A    between atoms: _455  and  _456
REMARK  187  A    between atoms: _462  and  _464
REMARK  188  A    between atoms: _464  and  _465
REMARK  189  A    between atoms: _464  and  _467
REMARK  190  A    between atoms: _467  and  _468
REMARK  191  A    between atoms: _468  and  _469
REMARK  192  A    between atoms: _469  and  _470
REMARK  193  A    between atoms: _479  and  _481
REMARK  194  A    between atoms: _481  and  _482
REMARK  195  A    between atoms: _484  and  _486
REMARK  196  A    between atoms: _486  and  _487
REMARK  197  A    between atoms: _486  and  _489
REMARK  198  A    between atoms: _489  and  _490
REMARK  199  A    between atoms: _493  and  _495
REMARK  200  A    between atoms: _495  and  _496
REMARK  201  A    between atoms: _498  and  _500
REMARK  202  A    between atoms: _500  and  _501
REMARK  203  A    between atoms: _500  and  _503
REMARK  204  A    between atoms: _503  and  _504
REMARK  205  A    between atoms: _504  and  _505
REMARK  206  A    between atoms: _507  and  _509
REMARK  207  A    between atoms: _509  and  _510
REMARK  208  A    between atoms: _513  and  _515
REMARK  209  A    between atoms: _515  and  _516
REMARK  210  A    between atoms: _515  and  _518
REMARK  211  A    between atoms: _518  and  _519
REMARK  212  A    between atoms: _521  and  _523
REMARK  213  A    between atoms: _523  and  _524
REMARK  214  A    between atoms: _523  and  _526
REMARK  215  A    between atoms: _526  and  _527
REMARK  216  A    between atoms: _530  and  _532
REMARK  217  A    between atoms: _532  and  _533
REMARK  218  A    between atoms: _532  and  _535
REMARK  219  A    between atoms: _535  and  _536
REMARK  220  A    between atoms: _541  and  _543
REMARK  221  A    between atoms: _543  and  _544
REMARK  222  A    between atoms: _543  and  _546
REMARK  223  A    between atoms: _546  and  _547
REMARK  224  A    between atoms: _552  and  _554
REMARK  225  A    between atoms: _554  and  _555
REMARK  226  A    between atoms: _554  and  _557
REMARK  227  A    between atoms: _560  and  _562
REMARK  228  A    between atoms: _562  and  _563
REMARK  229  A    between atoms: _562  and  _565
REMARK  230  A    between atoms: _565  and  _566
REMARK  231  A    between atoms: _571  and  _572
REMARK                            x       y       z     vdW  Elec       q    Type
REMARK                         _______ _______ _______ _____ _____    ______ ____
ROOT
ATOM      1  O   HOH     1      20.512   7.812  10.990  0.00  0.00    +0.000 OA
ENDROOT
TORSDOF 0
REMARK  Name = ../refined-set-2016/2i2c/2i2c_pocket.pdb
REMARK  231 active torsions:
REMARK  status: ('A' for Active; 'I' for Inactive)
REMARK    1  A    between atoms: _1  and  _3
REMARK    2  A    between atoms: _3  and  _4
REMARK    3  A    between atoms: _6  and  _8
REMARK    4  A    between atoms: _8  and  _9
REMARK    5  A    between atoms: _8  and  _11
REMARK    6  A    between atoms: _11  and  _12
REMARK    7  A    between atoms: _15  and  _17
REMARK    8  A    between atoms: _17  and  _18
REMARK    9  A    between atoms: _20  and  _22
REMARK   10  A    between atoms: _22  and  _23
REMARK   11  A    between atoms: _22  and  _25
REMARK   12  A    between atoms: _25  and  _26
REMARK   13  A    between atoms: _29  and  _31
REMARK   14  A    between atoms: _31  and  _32
REMARK   15  A    between atoms: _31  and  _34
REMARK   16  A    between atoms: _34  and  _35
REMARK   17  A    between atoms: _41  and  _43
REMARK   18  A    between atoms: _43  and  _44
REMARK   19  A    between atoms: _43  and  _46
REMARK   20  A    between atoms: _46  and  _47
REMARK   21  A    between atoms: _50  and  _52
REMARK   22  A    between atoms: _52  and  _53
REMARK   23  A    between atoms: _52  and  _55
REMARK   24  A    between atoms: _55  and  _56
REMARK   25  A    between atoms: _58  and  _60
REMARK   26  A    between atoms: _60  and  _61
REMARK   27  A    between atoms: _60  and  _63
REMARK   28  A    between atoms: _63  and  _64
REMARK   29  A    between atoms: _69  and  _71
REMARK   30  A    between atoms: _71  and  _72
REMARK   31  A    between atoms: _71  and  _74
REMARK   32  A    between atoms: _74  and  _75
REMARK   33  A    between atoms: _80  and  _82
REMARK   34  A    between atoms: _82  and  _83
REMARK   35  A    between atoms: _82  and  _85
REMARK   36  A    between atoms: _85  and  _86
REMARK   37  A    between atoms: _89  and  _91
REMARK   38  A    between atoms: _91  and  _92
REMARK   39  A    between atoms: _94  and  _96
REMARK   40  A    between atoms: _96  and  _97
REMARK   41  A    between atoms: _96  and  _99
REMARK   42  A    between atoms: _99  and  _100
REMARK   43  A    between atoms: _106  and  _108
REMARK   44  A    between atoms: _108  and  _109
REMARK   45  A    between atoms: _108  and  _111
REMARK   46  A    between atoms: _111  and  _112
REMARK   47  A    between atoms: _117  and  _118
REMARK   48  A    between atoms: _120  and  _122
REMARK   49  A    between atoms: _122  and  _123
REMARK   50  A    between atoms: _126  and  _128
REMARK   51  A    between atoms: _128  and  _129
REMARK   52  A    between atoms: _132  and  _134
REMARK   53  A    between atoms: _134  and  _135
REMARK   54  A    between atoms: _134  and  _137
REMARK   55  A    between atoms: _137  and  _138
REMARK   56  A    between atoms: _141  and  _143
REMARK   57  A    between atoms: _143  and  _144
REMARK   58  A    between atoms: _143  and  _146
REMARK   59  A    between atoms: _146  and  _147
REMARK   60  A    between atoms: _152  and  _154
REMARK   61  A    between atoms: _154  and  _155
REMARK   62  A    between atoms: _154  and  _157
REMARK   63  A    between atoms: _157  and  _158
REMARK   64  A    between atoms: _158  and  _159
REMARK   65  A    between atoms: _162  and  _164
REMARK   66  A    between atoms: _164  and  _165
REMARK   67  A    between atoms: _164  and  _167
REMARK   68  A    between atoms: _167  and  _168
REMARK   69  A    between atoms: _170  and  _172
REMARK   70  A    between atoms: _172  and  _173
REMARK   71  A    between atoms: _172  and  _175
REMARK   72  A    between atoms: _175  and  _176
REMARK   73  A    between atoms: _179  and  _181
REMARK   74  A    between atoms: _181  and  _182
REMARK   75  A    between atoms: _181  and  _184
REMARK   76  A    between atoms: _184  and  _185
REMARK   77  A    between atoms: _185  and  _186
REMARK   78  A    between atoms: _186  and  _187
REMARK   79  A    between atoms: _187  and  _188
REMARK   80  A    between atoms: _192  and  _194
REMARK   81  A    between atoms: _194  and  _195
REMARK   82  A    between atoms: _194  and  _197
REMARK   83  A    between atoms: _199  and  _201
REMARK   84  A    between atoms: _201  and  _202
REMARK   85  A    between atoms: _201  and  _204
REMARK   86  A    between atoms: _204  and  _205
REMARK   87  A    between atoms: _207  and  _209
REMARK   88  A    between atoms: _209  and  _210
REMARK   89  A    between atoms: _209  and  _212
REMARK   90  A    between atoms: _212  and  _213
REMARK   91  A    between atoms: _217  and  _218
REMARK   92  A    between atoms: _223  and  _225
REMARK   93  A    between atoms: _225  and  _226
REMARK   94  A    between atoms: _225  and  _228
REMARK   95  A    between atoms: _228  and  _229
REMARK   96  A    between atoms: _231  and  _233
REMARK   97  A    between atoms: _233  and  _234
REMARK   98  A    between atoms: _236  and  _238
REMARK   99  A    between atoms: _238  and  _239
REMARK  100  A    between atoms: _238  and  _241
REMARK  101  A    between atoms: _241  and  _242
REMARK  102  A    between atoms: _245  and  _247
REMARK  103  A    between atoms: _247  and  _248
REMARK  104  A    between atoms: _247  and  _250
REMARK  105  A    between atoms: _250  and  _251
REMARK  106  A    between atoms: _254  and  _256
REMARK  107  A    between atoms: _256  and  _257
REMARK  108  A    between atoms: _260  and  _262
REMARK  109  A    between atoms: _262  and  _263
REMARK  110  A    between atoms: _262  and  _265
REMARK  111  A    between atoms: _265  and  _266
REMARK  112  A    between atoms: _271  and  _272
REMARK  113  A    between atoms: _274  and  _276
REMARK  114  A    between atoms: _276  and  _277
REMARK  115  A    between atoms: _276  and  _279
REMARK  116  A    between atoms: _279  and  _280
REMARK  117  A    between atoms: _285  and  _287
REMARK  118  A    between atoms: _287  and  _288
REMARK  119  A    between atoms: _287  and  _290
REMARK  120  A    between atoms: _290  and  _291
REMARK  121  A    between atoms: _291  and  _292
REMARK  122  A    between atoms: _292  and  _293
REMARK  123  A    between atoms: _293  and  _294
REMARK  124  A    between atoms: _298  and  _300
REMARK  125  A    between atoms: _300  and  _301
REMARK  126  A    between atoms: _300  and  _303
REMARK  127  A    between atoms: _303  and  _304
REMARK  128  A    between atoms: _306  and  _308
REMARK  129  A    between atoms: _308  and  _309
REMARK  130  A    between atoms: _308  and  _311
REMARK  131  A    between atoms: _311  and  _312
REMARK  132  A    between atoms: _315  and  _317
REMARK  133  A    between atoms: _317  and  _318
REMARK  134  A    between atoms: _317  and  _320
REMARK  135  A    between atoms: _320  and  _321
REMARK  136  A    between atoms: _324  and  _326
REMARK  137  A    between atoms: _326  and  _327
REMARK  138  A    between atoms: _326  and  _329
REMARK  139  A    between atoms: _329  and  _330
REMARK  140  A    between atoms: _332  and  _334
REMARK  141  A    between atoms: _334  and  _335
REMARK  142  A    between atoms: _334  and  _337
REMARK  143  A    between atoms: _340  and  _342
REMARK  144  A    between atoms: _342  and  _343
REMARK  145  A    between atoms: _342  and  _345
REMARK  146  A    between atoms: _345  and  _346
REMARK  147  A    between atoms: _349  and  _351
REMARK  148  A    between atoms: _351  and  _352
REMARK  149  A    between atoms: _351  and  _354
REMARK  150  A    between atoms: _354  and  _355
REMARK  151  A    between atoms: _360  and  _362
REMARK  152  A    between atoms: _362  and  _363
REMARK  153  A    between atoms: _362  and  _365
REMARK  154  A    between atoms: _365  and  _366
REMARK  155  A    between atoms: _369  and  _371
REMARK  156  A    between atoms: _371  and  _372
REMARK  157  A    between atoms: _371  and  _374
REMARK  158  A    between atoms: _374  and  _375
REMARK  159  A    between atoms: _381  and  _383
REMARK  160  A    between atoms: _383  and  _384
REMARK  161  A    between atoms: _383  and  _386
REMARK  162  A    between atoms: _386  and  _387
REMARK  163  A    between atoms: _387  and  _388
REMARK  164  A    between atoms: _388  and  _389
REMARK  165  A    between atoms: _398  and  _400
REMARK  166  A    between atoms: _400  and  _401
REMARK  167  A    between atoms: _400  and  _403
REMARK  168  A    between atoms: _406  and  _408
REMARK  169  A    between atoms: _408  and  _409
REMARK  170  A    between atoms: _408  and  _411
REMARK  171  A    between atoms: _411  and  _412
REMARK  172  A    between atoms: _414  and  _416
REMARK  173  A    between atoms: _416  and  _417
REMARK  174  A    between atoms: _416  and  _419
REMARK  175  A    between atoms: _419  and  _420
REMARK  176  A    between atoms: _426  and  _428
REMARK  177  A    between atoms: _428  and  _429
REMARK  178  A    between atoms: _432  and  _433
REMARK  179  A    between atoms: _438  and  _440
REMARK  180  A    between atoms: _440  and  _441
REMARK  181  A    between atoms: _440  and  _443
REMARK  182  A    between atoms: _443  and  _444
REMARK  183  A    between atoms: _450  and  _452
REMARK  184  A    between atoms: _452  and  _453
REMARK  185  A    between atoms: _452  and  _455
REMARK  186  A    between atoms: _455  and  _456
REMARK  187  A    between atoms: _462  and  _464
REMARK  188  A    between atoms: _464  and  _465
REMARK  189  A    between atoms: _464  and  _467
REMARK  190  A    between atoms: _467  and  _468
REMARK  191  A    between atoms: _468  and  _469
REMARK  192  A    between atoms: _469  and  _470
REMARK  193  A    between atoms: _479  and  _481
REMARK  194  A    between atoms: _481  and  _482
REMARK  195  A    between atoms: _484  and  _486
REMARK  196  A    between atoms: _486  and  _487
REMARK  197  A    between atoms: _486  and  _489
REMARK  198  A    between atoms: _489  and  _490
REMARK  199  A    between atoms: _493  and  _495
REMARK  200  A    between atoms: _495  and  _496
REMARK  201  A    between atoms: _498  and  _500
REMARK  202  A    between atoms: _500  and  _501
REMARK  203  A    between atoms: _500  and  _503
REMARK  204  A    between atoms: _503  and  _504
REMARK  205  A    between atoms: _504  and  _505
REMARK  206  A    between atoms: _507  and  _509
REMARK  207  A    between atoms: _509  and  _510
REMARK  208  A    between atoms: _513  and  _515
REMARK  209  A    between atoms: _515  and  _516
REMARK  210  A    between atoms: _515  and  _518
REMARK  211  A    between atoms: _518  and  _519
REMARK  212  A    between atoms: _521  and  _523
REMARK  213  A    between atoms: _523  and  _524
REMARK  214  A    between atoms: _523  and  _526
REMARK  215  A    between atoms: _526  and  _527
REMARK  216  A    between atoms: _530  and  _532
REMARK  217  A    between atoms: _532  and  _533
REMARK  218  A    between atoms: _532  and  _535
REMARK  219  A    between atoms: _535  and  _536
REMARK  220  A    between atoms: _541  and  _543
REMARK  221  A    between atoms: _543  and  _544
REMARK  222  A    between atoms: _543  and  _546
REMARK  223  A    between atoms: _546  and  _547
REMARK  224  A    between atoms: _552  and  _554
REMARK  225  A    between atoms: _554  and  _555
REMARK  226  A    between atoms: _554  and  _557
REMARK  227  A    between atoms: _560  and  _562
REMARK  228  A    between atoms: _562  and  _563
REMARK  229  A    between atoms: _562  and  _565
REMARK  230  A    between atoms: _565  and  _566
REMARK  231  A    between atoms: _571  and  _572
REMARK                            x       y       z     vdW  Elec       q    Type
REMARK                         _______ _______ _______ _____ _____    ______ ____
ROOT
ATOM      1  O   HOH     1      13.435   0.973   1.866  0.00  0.00    +0.000 OA
ENDROOT
TORSDOF 0
REMARK  Name = ../refined-set-2016/2i2c/2i2c_pocket.pdb
REMARK  231 active torsions:
REMARK  status: ('A' for Active; 'I' for Inactive)
REMARK    1  A    between atoms: _1  and  _3
REMARK    2  A    between atoms: _3  and  _4
REMARK    3  A    between atoms: _6  and  _8
REMARK    4  A    between atoms: _8  and  _9
REMARK    5  A    between atoms: _8  and  _11
REMARK    6  A    between atoms: _11  and  _12
REMARK    7  A    between atoms: _15  and  _17
REMARK    8  A    between atoms: _17  and  _18
REMARK    9  A    between atoms: _20  and  _22
REMARK   10  A    between atoms: _22  and  _23
REMARK   11  A    between atoms: _22  and  _25
REMARK   12  A    between atoms: _25  and  _26
REMARK   13  A    between atoms: _29  and  _31
REMARK   14  A    between atoms: _31  and  _32
REMARK   15  A    between atoms: _31  and  _34
REMARK   16  A    between atoms: _34  and  _35
REMARK   17  A    between atoms: _41  and  _43
REMARK   18  A    between atoms: _43  and  _44
REMARK   19  A    between atoms: _43  and  _46
REMARK   20  A    between atoms: _46  and  _47
REMARK   21  A    between atoms: _50  and  _52
REMARK   22  A    between atoms: _52  and  _53
REMARK   23  A    between atoms: _52  and  _55
REMARK   24  A    between atoms: _55  and  _56
REMARK   25  A    between atoms: _58  and  _60
REMARK   26  A    between atoms: _60  and  _61
REMARK   27  A    between atoms: _60  and  _63
REMARK   28  A    between atoms: _63  and  _64
REMARK   29  A    between atoms: _69  and  _71
REMARK   30  A    between atoms: _71  and  _72
REMARK   31  A    between atoms: _71  and  _74
REMARK   32  A    between atoms: _74  and  _75
REMARK   33  A    between atoms: _80  and  _82
REMARK   34  A    between atoms: _82  and  _83
REMARK   35  A    between atoms: _82  and  _85
REMARK   36  A    between atoms: _85  and  _86
REMARK   37  A    between atoms: _89  and  _91
REMARK   38  A    between atoms: _91  and  _92
REMARK   39  A    between atoms: _94  and  _96
REMARK   40  A    between atoms: _96  and  _97
REMARK   41  A    between atoms: _96  and  _99
REMARK   42  A    between atoms: _99  and  _100
REMARK   43  A    between atoms: _106  and  _108
REMARK   44  A    between atoms: _108  and  _109
REMARK   45  A    between atoms: _108  and  _111
REMARK   46  A    between atoms: _111  and  _112
REMARK   47  A    between atoms: _117  and  _118
REMARK   48  A    between atoms: _120  and  _122
REMARK   49  A    between atoms: _122  and  _123
REMARK   50  A    between atoms: _126  and  _128
REMARK   51  A    between atoms: _128  and  _129
REMARK   52  A    between atoms: _132  and  _134
REMARK   53  A    between atoms: _134  and  _135
REMARK   54  A    between atoms: _134  and  _137
REMARK   55  A    between atoms: _137  and  _138
REMARK   56  A    between atoms: _141  and  _143
REMARK   57  A    between atoms: _143  and  _144
REMARK   58  A    between atoms: _143  and  _146
REMARK   59  A    between atoms: _146  and  _147
REMARK   60  A    between atoms: _152  and  _154
REMARK   61  A    between atoms: _154  and  _155
REMARK   62  A    between atoms: _154  and  _157
REMARK   63  A    between atoms: _157  and  _158
REMARK   64  A    between atoms: _158  and  _159
REMARK   65  A    between atoms: _162  and  _164
REMARK   66  A    between atoms: _164  and  _165
REMARK   67  A    between atoms: _164  and  _167
REMARK   68  A    between atoms: _167  and  _168
REMARK   69  A    between atoms: _170  and  _172
REMARK   70  A    between atoms: _172  and  _173
REMARK   71  A    between atoms: _172  and  _175
REMARK   72  A    between atoms: _175  and  _176
REMARK   73  A    between atoms: _179  and  _181
REMARK   74  A    between atoms: _181  and  _182
REMARK   75  A    between atoms: _181  and  _184
REMARK   76  A    between atoms: _184  and  _185
REMARK   77  A    between atoms: _185  and  _186
REMARK   78  A    between atoms: _186  and  _187
REMARK   79  A    between atoms: _187  and  _188
REMARK   80  A    between atoms: _192  and  _194
REMARK   81  A    between atoms: _194  and  _195
REMARK   82  A    between atoms: _194  and  _197
REMARK   83  A    between atoms: _199  and  _201
REMARK   84  A    between atoms: _201  and  _202
REMARK   85  A    between atoms: _201  and  _204
REMARK   86  A    between atoms: _204  and  _205
REMARK   87  A    between atoms: _207  and  _209
REMARK   88  A    between atoms: _209  and  _210
REMARK   89  A    between atoms: _209  and  _212
REMARK   90  A    between atoms: _212  and  _213
REMARK   91  A    between atoms: _217  and  _218
REMARK   92  A    between atoms: _223  and  _225
REMARK   93  A    between atoms: _225  and  _226
REMARK   94  A    between atoms: _225  and  _228
REMARK   95  A    between atoms: _228  and  _229
REMARK   96  A    between atoms: _231  and  _233
REMARK   97  A    between atoms: _233  and  _234
REMARK   98  A    between atoms: _236  and  _238
REMARK   99  A    between atoms: _238  and  _239
REMARK  100  A    between atoms: _238  and  _241
REMARK  101  A    between atoms: _241  and  _242
REMARK  102  A    between atoms: _245  and  _247
REMARK  103  A    between atoms: _247  and  _248
REMARK  104  A    between atoms: _247  and  _250
REMARK  105  A    between atoms: _250  and  _251
REMARK  106  A    between atoms: _254  and  _256
REMARK  107  A    between atoms: _256  and  _257
REMARK  108  A    between atoms: _260  and  _262
REMARK  109  A    between atoms: _262  and  _263
REMARK  110  A    between atoms: _262  and  _265
REMARK  111  A    between atoms: _265  and  _266
REMARK  112  A    between atoms: _271  and  _272
REMARK  113  A    between atoms: _274  and  _276
REMARK  114  A    between atoms: _276  and  _277
REMARK  115  A    between atoms: _276  and  _279
REMARK  116  A    between atoms: _279  and  _280
REMARK  117  A    between atoms: _285  and  _287
REMARK  118  A    between atoms: _287  and  _288
REMARK  119  A    between atoms: _287  and  _290
REMARK  120  A    between atoms: _290  and  _291
REMARK  121  A    between atoms: _291  and  _292
REMARK  122  A    between atoms: _292  and  _293
REMARK  123  A    between atoms: _293  and  _294
REMARK  124  A    between atoms: _298  and  _300
REMARK  125  A    between atoms: _300  and  _301
REMARK  126  A    between atoms: _300  and  _303
REMARK  127  A    between atoms: _303  and  _304
REMARK  128  A    between atoms: _306  and  _308
REMARK  129  A    between atoms: _308  and  _309
REMARK  130  A    between atoms: _308  and  _311
REMARK  131  A    between atoms: _311  and  _312
REMARK  132  A    between atoms: _315  and  _317
REMARK  133  A    between atoms: _317  and  _318
REMARK  134  A    between atoms: _317  and  _320
REMARK  135  A    between atoms: _320  and  _321
REMARK  136  A    between atoms: _324  and  _326
REMARK  137  A    between atoms: _326  and  _327
REMARK  138  A    between atoms: _326  and  _329
REMARK  139  A    between atoms: _329  and  _330
REMARK  140  A    between atoms: _332  and  _334
REMARK  141  A    between atoms: _334  and  _335
REMARK  142  A    between atoms: _334  and  _337
REMARK  143  A    between atoms: _340  and  _342
REMARK  144  A    between atoms: _342  and  _343
REMARK  145  A    between atoms: _342  and  _345
REMARK  146  A    between atoms: _345  and  _346
REMARK  147  A    between atoms: _349  and  _351
REMARK  148  A    between atoms: _351  and  _352
REMARK  149  A    between atoms: _351  and  _354
REMARK  150  A    between atoms: _354  and  _355
REMARK  151  A    between atoms: _360  and  _362
REMARK  152  A    between atoms: _362  and  _363
REMARK  153  A    between atoms: _362  and  _365
REMARK  154  A    between atoms: _365  and  _366
REMARK  155  A    between atoms: _369  and  _371
REMARK  156  A    between atoms: _371  and  _372
REMARK  157  A    between atoms: _371  and  _374
REMARK  158  A    between atoms: _374  and  _375
REMARK  159  A    between atoms: _381  and  _383
REMARK  160  A    between atoms: _383  and  _384
REMARK  161  A    between atoms: _383  and  _386
REMARK  162  A    between atoms: _386  and  _387
REMARK  163  A    between atoms: _387  and  _388
REMARK  164  A    between atoms: _388  and  _389
REMARK  165  A    between atoms: _398  and  _400
REMARK  166  A    between atoms: _400  and  _401
REMARK  167  A    between atoms: _400  and  _403
REMARK  168  A    between atoms: _406  and  _408
REMARK  169  A    between atoms: _408  and  _409
REMARK  170  A    between atoms: _408  and  _411
REMARK  171  A    between atoms: _411  and  _412
REMARK  172  A    between atoms: _414  and  _416
REMARK  173  A    between atoms: _416  and  _417
REMARK  174  A    between atoms: _416  and  _419
REMARK  175  A    between atoms: _419  and  _420
REMARK  176  A    between atoms: _426  and  _428
REMARK  177  A    between atoms: _428  and  _429
REMARK  178  A    between atoms: _432  and  _433
REMARK  179  A    between atoms: _438  and  _440
REMARK  180  A    between atoms: _440  and  _441
REMARK  181  A    between atoms: _440  and  _443
REMARK  182  A    between atoms: _443  and  _444
REMARK  183  A    between atoms: _450  and  _452
REMARK  184  A    between atoms: _452  and  _453
REMARK  185  A    between atoms: _452  and  _455
REMARK  186  A    between atoms: _455  and  _456
REMARK  187  A    between atoms: _462  and  _464
REMARK  188  A    between atoms: _464  and  _465
REMARK  189  A    between atoms: _464  and  _467
REMARK  190  A    between atoms: _467  and  _468
REMARK  191  A    between atoms: _468  and  _469
REMARK  192  A    between atoms: _469  and  _470
REMARK  193  A    between atoms: _479  and  _481
REMARK  194  A    between atoms: _481  and  _482
REMARK  195  A    between atoms: _484  and  _486
REMARK  196  A    between atoms: _486  and  _487
REMARK  197  A    between atoms: _486  and  _489
REMARK  198  A    between atoms: _489  and  _490
REMARK  199  A    between atoms: _493  and  _495
REMARK  200  A    between atoms: _495  and  _496
REMARK  201  A    between atoms: _498  and  _500
REMARK  202  A    between atoms: _500  and  _501
REMARK  203  A    between atoms: _500  and  _503
REMARK  204  A    between atoms: _503  and  _504
REMARK  205  A    between atoms: _504  and  _505
REMARK  206  A    between atoms: _507  and  _509
REMARK  207  A    between atoms: _509  and  _510
REMARK  208  A    between atoms: _513  and  _515
REMARK  209  A    between atoms: _515  and  _516
REMARK  210  A    between atoms: _515  and  _518
REMARK  211  A    between atoms: _518  and  _519
REMARK  212  A    between atoms: _521  and  _523
REMARK  213  A    between atoms: _523  and  _524
REMARK  214  A    between atoms: _523  and  _526
REMARK  215  A    between atoms: _526  and  _527
REMARK  216  A    between atoms: _530  and  _532
REMARK  217  A    between atoms: _532  and  _533
REMARK  218  A    between atoms: _532  and  _535
REMARK  219  A    between atoms: _535  and  _536
REMARK  220  A    between atoms: _541  and  _543
REMARK  221  A    between atoms: _543  and  _544
REMARK  222  A    between atoms: _543  and  _546
REMARK  223  A    between atoms: _546  and  _547
REMARK  224  A    between atoms: _552  and  _554
REMARK  225  A    between atoms: _554  and  _555
REMARK  226  A    between atoms: _554  and  _557
REMARK  227  A    between atoms: _560  and  _562
REMARK  228  A    between atoms: _562  and  _563
REMARK  229  A    between atoms: _562  and  _565
REMARK  230  A    between atoms: _565  and  _566
REMARK  231  A    between atoms: _571  and  _572
REMARK                            x       y       z     vdW  Elec       q    Type
REMARK                         _______ _______ _______ _____ _____    ______ ____
ROOT
ATOM      1  O   HOH     1      17.435  10.512  18.455  0.00  0.00    +0.000 OA
ENDROOT
TORSDOF 0
REMARK  Name = ../refined-set-2016/2i2c/2i2c_pocket.pdb
REMARK  231 active torsions:
REMARK  status: ('A' for Active; 'I' for Inactive)
REMARK    1  A    between atoms: _1  and  _3
REMARK    2  A    between atoms: _3  and  _4
REMARK    3  A    between atoms: _6  and  _8
REMARK    4  A    between atoms: _8  and  _9
REMARK    5  A    between atoms: _8  and  _11
REMARK    6  A    between atoms: _11  and  _12
REMARK    7  A    between atoms: _15  and  _17
REMARK    8  A    between atoms: _17  and  _18
REMARK    9  A    between atoms: _20  and  _22
REMARK   10  A    between atoms: _22  and  _23
REMARK   11  A    between atoms: _22  and  _25
REMARK   12  A    between atoms: _25  and  _26
REMARK   13  A    between atoms: _29  and  _31
REMARK   14  A    between atoms: _31  and  _32
REMARK   15  A    between atoms: _31  and  _34
REMARK   16  A    between atoms: _34  and  _35
REMARK   17  A    between atoms: _41  and  _43
REMARK   18  A    between atoms: _43  and  _44
REMARK   19  A    between atoms: _43  and  _46
REMARK   20  A    between atoms: _46  and  _47
REMARK   21  A    between atoms: _50  and  _52
REMARK   22  A    between atoms: _52  and  _53
REMARK   23  A    between atoms: _52  and  _55
REMARK   24  A    between atoms: _55  and  _56
REMARK   25  A    between atoms: _58  and  _60
REMARK   26  A    between atoms: _60  and  _61
REMARK   27  A    between atoms: _60  and  _63
REMARK   28  A    between atoms: _63  and  _64
REMARK   29  A    between atoms: _69  and  _71
REMARK   30  A    between atoms: _71  and  _72
REMARK   31  A    between atoms: _71  and  _74
REMARK   32  A    between atoms: _74  and  _75
REMARK   33  A    between atoms: _80  and  _82
REMARK   34  A    between atoms: _82  and  _83
REMARK   35  A    between atoms: _82  and  _85
REMARK   36  A    between atoms: _85  and  _86
REMARK   37  A    between atoms: _89  and  _91
REMARK   38  A    between atoms: _91  and  _92
REMARK   39  A    between atoms: _94  and  _96
REMARK   40  A    between atoms: _96  and  _97
REMARK   41  A    between atoms: _96  and  _99
REMARK   42  A    between atoms: _99  and  _100
REMARK   43  A    between atoms: _106  and  _108
REMARK   44  A    between atoms: _108  and  _109
REMARK   45  A    between atoms: _108  and  _111
REMARK   46  A    between atoms: _111  and  _112
REMARK   47  A    between atoms: _117  and  _118
REMARK   48  A    between atoms: _120  and  _122
REMARK   49  A    between atoms: _122  and  _123
REMARK   50  A    between atoms: _126  and  _128
REMARK   51  A    between atoms: _128  and  _129
REMARK   52  A    between atoms: _132  and  _134
REMARK   53  A    between atoms: _134  and  _135
REMARK   54  A    between atoms: _134  and  _137
REMARK   55  A    between atoms: _137  and  _138
REMARK   56  A    between atoms: _141  and  _143
REMARK   57  A    between atoms: _143  and  _144
REMARK   58  A    between atoms: _143  and  _146
REMARK   59  A    between atoms: _146  and  _147
REMARK   60  A    between atoms: _152  and  _154
REMARK   61  A    between atoms: _154  and  _155
REMARK   62  A    between atoms: _154  and  _157
REMARK   63  A    between atoms: _157  and  _158
REMARK   64  A    between atoms: _158  and  _159
REMARK   65  A    between atoms: _162  and  _164
REMARK   66  A    between atoms: _164  and  _165
REMARK   67  A    between atoms: _164  and  _167
REMARK   68  A    between atoms: _167  and  _168
REMARK   69  A    between atoms: _170  and  _172
REMARK   70  A    between atoms: _172  and  _173
REMARK   71  A    between atoms: _172  and  _175
REMARK   72  A    between atoms: _175  and  _176
REMARK   73  A    between atoms: _179  and  _181
REMARK   74  A    between atoms: _181  and  _182
REMARK   75  A    between atoms: _181  and  _184
REMARK   76  A    between atoms: _184  and  _185
REMARK   77  A    between atoms: _185  and  _186
REMARK   78  A    between atoms: _186  and  _187
REMARK   79  A    between atoms: _187  and  _188
REMARK   80  A    between atoms: _192  and  _194
REMARK   81  A    between atoms: _194  and  _195
REMARK   82  A    between atoms: _194  and  _197
REMARK   83  A    between atoms: _199  and  _201
REMARK   84  A    between atoms: _201  and  _202
REMARK   85  A    between atoms: _201  and  _204
REMARK   86  A    between atoms: _204  and  _205
REMARK   87  A    between atoms: _207  and  _209
REMARK   88  A    between atoms: _209  and  _210
REMARK   89  A    between atoms: _209  and  _212
REMARK   90  A    between atoms: _212  and  _213
REMARK   91  A    between atoms: _217  and  _218
REMARK   92  A    between atoms: _223  and  _225
REMARK   93  A    between atoms: _225  and  _226
REMARK   94  A    between atoms: _225  and  _228
REMARK   95  A    between atoms: _228  and  _229
REMARK   96  A    between atoms: _231  and  _233
REMARK   97  A    between atoms: _233  and  _234
REMARK   98  A    between atoms: _236  and  _238
REMARK   99  A    between atoms: _238  and  _239
REMARK  100  A    between atoms: _238  and  _241
REMARK  101  A    between atoms: _241  and  _242
REMARK  102  A    between atoms: _245  and  _247
REMARK  103  A    between atoms: _247  and  _248
REMARK  104  A    between atoms: _247  and  _250
REMARK  105  A    between atoms: _250  and  _251
REMARK  106  A    between atoms: _254  and  _256
REMARK  107  A    between atoms: _256  and  _257
REMARK  108  A    between atoms: _260  and  _262
REMARK  109  A    between atoms: _262  and  _263
REMARK  110  A    between atoms: _262  and  _265
REMARK  111  A    between atoms: _265  and  _266
REMARK  112  A    between atoms: _271  and  _272
REMARK  113  A    between atoms: _274  and  _276
REMARK  114  A    between atoms: _276  and  _277
REMARK  115  A    between atoms: _276  and  _279
REMARK  116  A    between atoms: _279  and  _280
REMARK  117  A    between atoms: _285  and  _287
REMARK  118  A    between atoms: _287  and  _288
REMARK  119  A    between atoms: _287  and  _290
REMARK  120  A    between atoms: _290  and  _291
REMARK  121  A    between atoms: _291  and  _292
REMARK  122  A    between atoms: _292  and  _293
REMARK  123  A    between atoms: _293  and  _294
REMARK  124  A    between atoms: _298  and  _300
REMARK  125  A    between atoms: _300  and  _301
REMARK  126  A    between atoms: _300  and  _303
REMARK  127  A    between atoms: _303  and  _304
REMARK  128  A    between atoms: _306  and  _308
REMARK  129  A    between atoms: _308  and  _309
REMARK  130  A    between atoms: _308  and  _311
REMARK  131  A    between atoms: _311  and  _312
REMARK  132  A    between atoms: _315  and  _317
REMARK  133  A    between atoms: _317  and  _318
REMARK  134  A    between atoms: _317  and  _320
REMARK  135  A    between atoms: _320  and  _321
REMARK  136  A    between atoms: _324  and  _326
REMARK  137  A    between atoms: _326  and  _327
REMARK  138  A    between atoms: _326  and  _329
REMARK  139  A    between atoms: _329  and  _330
REMARK  140  A    between atoms: _332  and  _334
REMARK  141  A    between atoms: _334  and  _335
REMARK  142  A    between atoms: _334  and  _337
REMARK  143  A    between atoms: _340  and  _342
REMARK  144  A    between atoms: _342  and  _343
REMARK  145  A    between atoms: _342  and  _345
REMARK  146  A    between atoms: _345  and  _346
REMARK  147  A    between atoms: _349  and  _351
REMARK  148  A    between atoms: _351  and  _352
REMARK  149  A    between atoms: _351  and  _354
REMARK  150  A    between atoms: _354  and  _355
REMARK  151  A    between atoms: _360  and  _362
REMARK  152  A    between atoms: _362  and  _363
REMARK  153  A    between atoms: _362  and  _365
REMARK  154  A    between atoms: _365  and  _366
REMARK  155  A    between atoms: _369  and  _371
REMARK  156  A    between atoms: _371  and  _372
REMARK  157  A    between atoms: _371  and  _374
REMARK  158  A    between atoms: _374  and  _375
REMARK  159  A    between atoms: _381  and  _383
REMARK  160  A    between atoms: _383  and  _384
REMARK  161  A    between atoms: _383  and  _386
REMARK  162  A    between atoms: _386  and  _387
REMARK  163  A    between atoms: _387  and  _388
REMARK  164  A    between atoms: _388  and  _389
REMARK  165  A    between atoms: _398  and  _400
REMARK  166  A    between atoms: _400  and  _401
REMARK  167  A    between atoms: _400  and  _403
REMARK  168  A    between atoms: _406  and  _408
REMARK  169  A    between atoms: _408  and  _409
REMARK  170  A    between atoms: _408  and  _411
REMARK  171  A    between atoms: _411  and  _412
REMARK  172  A    between atoms: _414  and  _416
REMARK  173  A    between atoms: _416  and  _417
REMARK  174  A    between atoms: _416  and  _419
REMARK  175  A    between atoms: _419  and  _420
REMARK  176  A    between atoms: _426  and  _428
REMARK  177  A    between atoms: _428  and  _429
REMARK  178  A    between atoms: _432  and  _433
REMARK  179  A    between atoms: _438  and  _440
REMARK  180  A    between atoms: _440  and  _441
REMARK  181  A    between atoms: _440  and  _443
REMARK  182  A    between atoms: _443  and  _444
REMARK  183  A    between atoms: _450  and  _452
REMARK  184  A    between atoms: _452  and  _453
REMARK  185  A    between atoms: _452  and  _455
REMARK  186  A    between atoms: _455  and  _456
REMARK  187  A    between atoms: _462  and  _464
REMARK  188  A    between atoms: _464  and  _465
REMARK  189  A    between atoms: _464  and  _467
REMARK  190  A    between atoms: _467  and  _468
REMARK  191  A    between atoms: _468  and  _469
REMARK  192  A    between atoms: _469  and  _470
REMARK  193  A    between atoms: _479  and  _481
REMARK  194  A    between atoms: _481  and  _482
REMARK  195  A    between atoms: _484  and  _486
REMARK  196  A    between atoms: _486  and  _487
REMARK  197  A    between atoms: _486  and  _489
REMARK  198  A    between atoms: _489  and  _490
REMARK  199  A    between atoms: _493  and  _495
REMARK  200  A    between atoms: _495  and  _496
REMARK  201  A    between atoms: _498  and  _500
REMARK  202  A    between atoms: _500  and  _501
REMARK  203  A    between atoms: _500  and  _503
REMARK  204  A    between atoms: _503  and  _504
REMARK  205  A    between atoms: _504  and  _505
REMARK  206  A    between atoms: _507  and  _509
REMARK  207  A    between atoms: _509  and  _510
REMARK  208  A    between atoms: _513  and  _515
REMARK  209  A    between atoms: _515  and  _516
REMARK  210  A    between atoms: _515  and  _518
REMARK  211  A    between atoms: _518  and  _519
REMARK  212  A    between atoms: _521  and  _523
REMARK  213  A    between atoms: _523  and  _524
REMARK  214  A    between atoms: _523  and  _526
REMARK  215  A    between atoms: _526  and  _527
REMARK  216  A    between atoms: _530  and  _532
REMARK  217  A    between atoms: _532  and  _533
REMARK  218  A    between atoms: _532  and  _535
REMARK  219  A    between atoms: _535  and  _536
REMARK  220  A    between atoms: _541  and  _543
REMARK  221  A    between atoms: _543  and  _544
REMARK  222  A    between atoms: _543  and  _546
REMARK  223  A    between atoms: _546  and  _547
REMARK  224  A    between atoms: _552  and  _554
REMARK  225  A    between atoms: _554  and  _555
REMARK  226  A    between atoms: _554  and  _557
REMARK  227  A    between atoms: _560  and  _562
REMARK  228  A    between atoms: _562  and  _563
REMARK  229  A    between atoms: _562  and  _565
REMARK  230  A    between atoms: _565  and  _566
REMARK  231  A    between atoms: _571  and  _572
REMARK                            x       y       z     vdW  Elec       q    Type
REMARK                         _______ _______ _______ _____ _____    ______ ____
ROOT
ATOM      1  O   HOH     1      18.983   0.493   0.686  0.00  0.00    +0.000 OA
ENDROOT
TORSDOF 0
REMARK  Name = ../refined-set-2016/2i2c/2i2c_pocket.pdb
REMARK  231 active torsions:
REMARK  status: ('A' for Active; 'I' for Inactive)
REMARK    1  A    between atoms: _1  and  _3
REMARK    2  A    between atoms: _3  and  _4
REMARK    3  A    between atoms: _6  and  _8
REMARK    4  A    between atoms: _8  and  _9
REMARK    5  A    between atoms: _8  and  _11
REMARK    6  A    between atoms: _11  and  _12
REMARK    7  A    between atoms: _15  and  _17
REMARK    8  A    between atoms: _17  and  _18
REMARK    9  A    between atoms: _20  and  _22
REMARK   10  A    between atoms: _22  and  _23
REMARK   11  A    between atoms: _22  and  _25
REMARK   12  A    between atoms: _25  and  _26
REMARK   13  A    between atoms: _29  and  _31
REMARK   14  A    between atoms: _31  and  _32
REMARK   15  A    between atoms: _31  and  _34
REMARK   16  A    between atoms: _34  and  _35
REMARK   17  A    between atoms: _41  and  _43
REMARK   18  A    between atoms: _43  and  _44
REMARK   19  A    between atoms: _43  and  _46
REMARK   20  A    between atoms: _46  and  _47
REMARK   21  A    between atoms: _50  and  _52
REMARK   22  A    between atoms: _52  and  _53
REMARK   23  A    between atoms: _52  and  _55
REMARK   24  A    between atoms: _55  and  _56
REMARK   25  A    between atoms: _58  and  _60
REMARK   26  A    between atoms: _60  and  _61
REMARK   27  A    between atoms: _60  and  _63
REMARK   28  A    between atoms: _63  and  _64
REMARK   29  A    between atoms: _69  and  _71
REMARK   30  A    between atoms: _71  and  _72
REMARK   31  A    between atoms: _71  and  _74
REMARK   32  A    between atoms: _74  and  _75
REMARK   33  A    between atoms: _80  and  _82
REMARK   34  A    between atoms: _82  and  _83
REMARK   35  A    between atoms: _82  and  _85
REMARK   36  A    between atoms: _85  and  _86
REMARK   37  A    between atoms: _89  and  _91
REMARK   38  A    between atoms: _91  and  _92
REMARK   39  A    between atoms: _94  and  _96
REMARK   40  A    between atoms: _96  and  _97
REMARK   41  A    between atoms: _96  and  _99
REMARK   42  A    between atoms: _99  and  _100
REMARK   43  A    between atoms: _106  and  _108
REMARK   44  A    between atoms: _108  and  _109
REMARK   45  A    between atoms: _108  and  _111
REMARK   46  A    between atoms: _111  and  _112
REMARK   47  A    between atoms: _117  and  _118
REMARK   48  A    between atoms: _120  and  _122
REMARK   49  A    between atoms: _122  and  _123
REMARK   50  A    between atoms: _126  and  _128
REMARK   51  A    between atoms: _128  and  _129
REMARK   52  A    between atoms: _132  and  _134
REMARK   53  A    between atoms: _134  and  _135
REMARK   54  A    between atoms: _134  and  _137
REMARK   55  A    between atoms: _137  and  _138
REMARK   56  A    between atoms: _141  and  _143
REMARK   57  A    between atoms: _143  and  _144
REMARK   58  A    between atoms: _143  and  _146
REMARK   59  A    between atoms: _146  and  _147
REMARK   60  A    between atoms: _152  and  _154
REMARK   61  A    between atoms: _154  and  _155
REMARK   62  A    between atoms: _154  and  _157
REMARK   63  A    between atoms: _157  and  _158
REMARK   64  A    between atoms: _158  and  _159
REMARK   65  A    between atoms: _162  and  _164
REMARK   66  A    between atoms: _164  and  _165
REMARK   67  A    between atoms: _164  and  _167
REMARK   68  A    between atoms: _167  and  _168
REMARK   69  A    between atoms: _170  and  _172
REMARK   70  A    between atoms: _172  and  _173
REMARK   71  A    between atoms: _172  and  _175
REMARK   72  A    between atoms: _175  and  _176
REMARK   73  A    between atoms: _179  and  _181
REMARK   74  A    between atoms: _181  and  _182
REMARK   75  A    between atoms: _181  and  _184
REMARK   76  A    between atoms: _184  and  _185
REMARK   77  A    between atoms: _185  and  _186
REMARK   78  A    between atoms: _186  and  _187
REMARK   79  A    between atoms: _187  and  _188
REMARK   80  A    between atoms: _192  and  _194
REMARK   81  A    between atoms: _194  and  _195
REMARK   82  A    between atoms: _194  and  _197
REMARK   83  A    between atoms: _199  and  _201
REMARK   84  A    between atoms: _201  and  _202
REMARK   85  A    between atoms: _201  and  _204
REMARK   86  A    between atoms: _204  and  _205
REMARK   87  A    between atoms: _207  and  _209
REMARK   88  A    between atoms: _209  and  _210
REMARK   89  A    between atoms: _209  and  _212
REMARK   90  A    between atoms: _212  and  _213
REMARK   91  A    between atoms: _217  and  _218
REMARK   92  A    between atoms: _223  and  _225
REMARK   93  A    between atoms: _225  and  _226
REMARK   94  A    between atoms: _225  and  _228
REMARK   95  A    between atoms: _228  and  _229
REMARK   96  A    between atoms: _231  and  _233
REMARK   97  A    between atoms: _233  and  _234
REMARK   98  A    between atoms: _236  and  _238
REMARK   99  A    between atoms: _238  and  _239
REMARK  100  A    between atoms: _238  and  _241
REMARK  101  A    between atoms: _241  and  _242
REMARK  102  A    between atoms: _245  and  _247
REMARK  103  A    between atoms: _247  and  _248
REMARK  104  A    between atoms: _247  and  _250
REMARK  105  A    between atoms: _250  and  _251
REMARK  106  A    between atoms: _254  and  _256
REMARK  107  A    between atoms: _256  and  _257
REMARK  108  A    between atoms: _260  and  _262
REMARK  109  A    between atoms: _262  and  _263
REMARK  110  A    between atoms: _262  and  _265
REMARK  111  A    between atoms: _265  and  _266
REMARK  112  A    between atoms: _271  and  _272
REMARK  113  A    between atoms: _274  and  _276
REMARK  114  A    between atoms: _276  and  _277
REMARK  115  A    between atoms: _276  and  _279
REMARK  116  A    between atoms: _279  and  _280
REMARK  117  A    between atoms: _285  and  _287
REMARK  118  A    between atoms: _287  and  _288
REMARK  119  A    between atoms: _287  and  _290
REMARK  120  A    between atoms: _290  and  _291
REMARK  121  A    between atoms: _291  and  _292
REMARK  122  A    between atoms: _292  and  _293
REMARK  123  A    between atoms: _293  and  _294
REMARK  124  A    between atoms: _298  and  _300
REMARK  125  A    between atoms: _300  and  _301
REMARK  126  A    between atoms: _300  and  _303
REMARK  127  A    between atoms: _303  and  _304
REMARK  128  A    between atoms: _306  and  _308
REMARK  129  A    between atoms: _308  and  _309
REMARK  130  A    between atoms: _308  and  _311
REMARK  131  A    between atoms: _311  and  _312
REMARK  132  A    between atoms: _315  and  _317
REMARK  133  A    between atoms: _317  and  _318
REMARK  134  A    between atoms: _317  and  _320
REMARK  135  A    between atoms: _320  and  _321
REMARK  136  A    between atoms: _324  and  _326
REMARK  137  A    between atoms: _326  and  _327
REMARK  138  A    between atoms: _326  and  _329
REMARK  139  A    between atoms: _329  and  _330
REMARK  140  A    between atoms: _332  and  _334
REMARK  141  A    between atoms: _334  and  _335
REMARK  142  A    between atoms: _334  and  _337
REMARK  143  A    between atoms: _340  and  _342
REMARK  144  A    between atoms: _342  and  _343
REMARK  145  A    between atoms: _342  and  _345
REMARK  146  A    between atoms: _345  and  _346
REMARK  147  A    between atoms: _349  and  _351
REMARK  148  A    between atoms: _351  and  _352
REMARK  149  A    between atoms: _351  and  _354
REMARK  150  A    between atoms: _354  and  _355
REMARK  151  A    between atoms: _360  and  _362
REMARK  152  A    between atoms: _362  and  _363
REMARK  153  A    between atoms: _362  and  _365
REMARK  154  A    between atoms: _365  and  _366
REMARK  155  A    between atoms: _369  and  _371
REMARK  156  A    between atoms: _371  and  _372
REMARK  157  A    between atoms: _371  and  _374
REMARK  158  A    between atoms: _374  and  _375
REMARK  159  A    between atoms: _381  and  _383
REMARK  160  A    between atoms: _383  and  _384
REMARK  161  A    between atoms: _383  and  _386
REMARK  162  A    between atoms: _386  and  _387
REMARK  163  A    between atoms: _387  and  _388
REMARK  164  A    between atoms: _388  and  _389
REMARK  165  A    between atoms: _398  and  _400
REMARK  166  A    between atoms: _400  and  _401
REMARK  167  A    between atoms: _400  and  _403
REMARK  168  A    between atoms: _406  and  _408
REMARK  169  A    between atoms: _408  and  _409
REMARK  170  A    between atoms: _408  and  _411
REMARK  171  A    between atoms: _411  and  _412
REMARK  172  A    between atoms: _414  and  _416
REMARK  173  A    between atoms: _416  and  _417
REMARK  174  A    between atoms: _416  and  _419
REMARK  175  A    between atoms: _419  and  _420
REMARK  176  A    between atoms: _426  and  _428
REMARK  177  A    between atoms: _428  and  _429
REMARK  178  A    between atoms: _432  and  _433
REMARK  179  A    between atoms: _438  and  _440
REMARK  180  A    between atoms: _440  and  _441
REMARK  181  A    between atoms: _440  and  _443
REMARK  182  A    between atoms: _443  and  _444
REMARK  183  A    between atoms: _450  and  _452
REMARK  184  A    between atoms: _452  and  _453
REMARK  185  A    between atoms: _452  and  _455
REMARK  186  A    between atoms: _455  and  _456
REMARK  187  A    between atoms: _462  and  _464
REMARK  188  A    between atoms: _464  and  _465
REMARK  189  A    between atoms: _464  and  _467
REMARK  190  A    between atoms: _467  and  _468
REMARK  191  A    between atoms: _468  and  _469
REMARK  192  A    between atoms: _469  and  _470
REMARK  193  A    between atoms: _479  and  _481
REMARK  194  A    between atoms: _481  and  _482
REMARK  195  A    between atoms: _484  and  _486
REMARK  196  A    between atoms: _486  and  _487
REMARK  197  A    between atoms: _486  and  _489
REMARK  198  A    between atoms: _489  and  _490
REMARK  199  A    between atoms: _493  and  _495
REMARK  200  A    between atoms: _495  and  _496
REMARK  201  A    between atoms: _498  and  _500
REMARK  202  A    between atoms: _500  and  _501
REMARK  203  A    between atoms: _500  and  _503
REMARK  204  A    between atoms: _503  and  _504
REMARK  205  A    between atoms: _504  and  _505
REMARK  206  A    between atoms: _507  and  _509
REMARK  207  A    between atoms: _509  and  _510
REMARK  208  A    between atoms: _513  and  _515
REMARK  209  A    between atoms: _515  and  _516
REMARK  210  A    between atoms: _515  and  _518
REMARK  211  A    between atoms: _518  and  _519
REMARK  212  A    between atoms: _521  and  _523
REMARK  213  A    between atoms: _523  and  _524
REMARK  214  A    between atoms: _523  and  _526
REMARK  215  A    between atoms: _526  and  _527
REMARK  216  A    between atoms: _530  and  _532
REMARK  217  A    between atoms: _532  and  _533
REMARK  218  A    between atoms: _532  and  _535
REMARK  219  A    between atoms: _535  and  _536
REMARK  220  A    between atoms: _541  and  _543
REMARK  221  A    between atoms: _543  and  _544
REMARK  222  A    between atoms: _543  and  _546
REMARK  223  A    between atoms: _546  and  _547
REMARK  224  A    between atoms: _552  and  _554
REMARK  225  A    between atoms: _554  and  _555
REMARK  226  A    between atoms: _554  and  _557
REMARK  227  A    between atoms: _560  and  _562
REMARK  228  A    between atoms: _562  and  _563
REMARK  229  A    between atoms: _562  and  _565
REMARK  230  A    between atoms: _565  and  _566
REMARK  231  A    between atoms: _571  and  _572
REMARK                            x       y       z     vdW  Elec       q    Type
REMARK                         _______ _______ _______ _____ _____    ______ ____
ROOT
ATOM      1  O   HOH     1      12.622  11.429  18.820  0.00  0.00    +0.000 OA
ENDROOT
TORSDOF 0
REMARK  Name = ../refined-set-2016/2i2c/2i2c_pocket.pdb
REMARK  231 active torsions:
REMARK  status: ('A' for Active; 'I' for Inactive)
REMARK    1  A    between atoms: _1  and  _3
REMARK    2  A    between atoms: _3  and  _4
REMARK    3  A    between atoms: _6  and  _8
REMARK    4  A    between atoms: _8  and  _9
REMARK    5  A    between atoms: _8  and  _11
REMARK    6  A    between atoms: _11  and  _12
REMARK    7  A    between atoms: _15  and  _17
REMARK    8  A    between atoms: _17  and  _18
REMARK    9  A    between atoms: _20  and  _22
REMARK   10  A    between atoms: _22  and  _23
REMARK   11  A    between atoms: _22  and  _25
REMARK   12  A    between atoms: _25  and  _26
REMARK   13  A    between atoms: _29  and  _31
REMARK   14  A    between atoms: _31  and  _32
REMARK   15  A    between atoms: _31  and  _34
REMARK   16  A    between atoms: _34  and  _35
REMARK   17  A    between atoms: _41  and  _43
REMARK   18  A    between atoms: _43  and  _44
REMARK   19  A    between atoms: _43  and  _46
REMARK   20  A    between atoms: _46  and  _47
REMARK   21  A    between atoms: _50  and  _52
REMARK   22  A    between atoms: _52  and  _53
REMARK   23  A    between atoms: _52  and  _55
REMARK   24  A    between atoms: _55  and  _56
REMARK   25  A    between atoms: _58  and  _60
REMARK   26  A    between atoms: _60  and  _61
REMARK   27  A    between atoms: _60  and  _63
REMARK   28  A    between atoms: _63  and  _64
REMARK   29  A    between atoms: _69  and  _71
REMARK   30  A    between atoms: _71  and  _72
REMARK   31  A    between atoms: _71  and  _74
REMARK   32  A    between atoms: _74  and  _75
REMARK   33  A    between atoms: _80  and  _82
REMARK   34  A    between atoms: _82  and  _83
REMARK   35  A    between atoms: _82  and  _85
REMARK   36  A    between atoms: _85  and  _86
REMARK   37  A    between atoms: _89  and  _91
REMARK   38  A    between atoms: _91  and  _92
REMARK   39  A    between atoms: _94  and  _96
REMARK   40  A    between atoms: _96  and  _97
REMARK   41  A    between atoms: _96  and  _99
REMARK   42  A    between atoms: _99  and  _100
REMARK   43  A    between atoms: _106  and  _108
REMARK   44  A    between atoms: _108  and  _109
REMARK   45  A    between atoms: _108  and  _111
REMARK   46  A    between atoms: _111  and  _112
REMARK   47  A    between atoms: _117  and  _118
REMARK   48  A    between atoms: _120  and  _122
REMARK   49  A    between atoms: _122  and  _123
REMARK   50  A    between atoms: _126  and  _128
REMARK   51  A    between atoms: _128  and  _129
REMARK   52  A    between atoms: _132  and  _134
REMARK   53  A    between atoms: _134  and  _135
REMARK   54  A    between atoms: _134  and  _137
REMARK   55  A    between atoms: _137  and  _138
REMARK   56  A    between atoms: _141  and  _143
REMARK   57  A    between atoms: _143  and  _144
REMARK   58  A    between atoms: _143  and  _146
REMARK   59  A    between atoms: _146  and  _147
REMARK   60  A    between atoms: _152  and  _154
REMARK   61  A    between atoms: _154  and  _155
REMARK   62  A    between atoms: _154  and  _157
REMARK   63  A    between atoms: _157  and  _158
REMARK   64  A    between atoms: _158  and  _159
REMARK   65  A    between atoms: _162  and  _164
REMARK   66  A    between atoms: _164  and  _165
REMARK   67  A    between atoms: _164  and  _167
REMARK   68  A    between atoms: _167  and  _168
REMARK   69  A    between atoms: _170  and  _172
REMARK   70  A    between atoms: _172  and  _173
REMARK   71  A    between atoms: _172  and  _175
REMARK   72  A    between atoms: _175  and  _176
REMARK   73  A    between atoms: _179  and  _181
REMARK   74  A    between atoms: _181  and  _182
REMARK   75  A    between atoms: _181  and  _184
REMARK   76  A    between atoms: _184  and  _185
REMARK   77  A    between atoms: _185  and  _186
REMARK   78  A    between atoms: _186  and  _187
REMARK   79  A    between atoms: _187  and  _188
REMARK   80  A    between atoms: _192  and  _194
REMARK   81  A    between atoms: _194  and  _195
REMARK   82  A    between atoms: _194  and  _197
REMARK   83  A    between atoms: _199  and  _201
REMARK   84  A    between atoms: _201  and  _202
REMARK   85  A    between atoms: _201  and  _204
REMARK   86  A    between atoms: _204  and  _205
REMARK   87  A    between atoms: _207  and  _209
REMARK   88  A    between atoms: _209  and  _210
REMARK   89  A    between atoms: _209  and  _212
REMARK   90  A    between atoms: _212  and  _213
REMARK   91  A    between atoms: _217  and  _218
REMARK   92  A    between atoms: _223  and  _225
REMARK   93  A    between atoms: _225  and  _226
REMARK   94  A    between atoms: _225  and  _228
REMARK   95  A    between atoms: _228  and  _229
REMARK   96  A    between atoms: _231  and  _233
REMARK   97  A    between atoms: _233  and  _234
REMARK   98  A    between atoms: _236  and  _238
REMARK   99  A    between atoms: _238  and  _239
REMARK  100  A    between atoms: _238  and  _241
REMARK  101  A    between atoms: _241  and  _242
REMARK  102  A    between atoms: _245  and  _247
REMARK  103  A    between atoms: _247  and  _248
REMARK  104  A    between atoms: _247  and  _250
REMARK  105  A    between atoms: _250  and  _251
REMARK  106  A    between atoms: _254  and  _256
REMARK  107  A    between atoms: _256  and  _257
REMARK  108  A    between atoms: _260  and  _262
REMARK  109  A    between atoms: _262  and  _263
REMARK  110  A    between atoms: _262  and  _265
REMARK  111  A    between atoms: _265  and  _266
REMARK  112  A    between atoms: _271  and  _272
REMARK  113  A    between atoms: _274  and  _276
REMARK  114  A    between atoms: _276  and  _277
REMARK  115  A    between atoms: _276  and  _279
REMARK  116  A    between atoms: _279  and  _280
REMARK  117  A    between atoms: _285  and  _287
REMARK  118  A    between atoms: _287  and  _288
REMARK  119  A    between atoms: _287  and  _290
REMARK  120  A    between atoms: _290  and  _291
REMARK  121  A    between atoms: _291  and  _292
REMARK  122  A    between atoms: _292  and  _293
REMARK  123  A    between atoms: _293  and  _294
REMARK  124  A    between atoms: _298  and  _300
REMARK  125  A    between atoms: _300  and  _301
REMARK  126  A    between atoms: _300  and  _303
REMARK  127  A    between atoms: _303  and  _304
REMARK  128  A    between atoms: _306  and  _308
REMARK  129  A    between atoms: _308  and  _309
REMARK  130  A    between atoms: _308  and  _311
REMARK  131  A    between atoms: _311  and  _312
REMARK  132  A    between atoms: _315  and  _317
REMARK  133  A    between atoms: _317  and  _318
REMARK  134  A    between atoms: _317  and  _320
REMARK  135  A    between atoms: _320  and  _321
REMARK  136  A    between atoms: _324  and  _326
REMARK  137  A    between atoms: _326  and  _327
REMARK  138  A    between atoms: _326  and  _329
REMARK  139  A    between atoms: _329  and  _330
REMARK  140  A    between atoms: _332  and  _334
REMARK  141  A    between atoms: _334  and  _335
REMARK  142  A    between atoms: _334  and  _337
REMARK  143  A    between atoms: _340  and  _342
REMARK  144  A    between atoms: _342  and  _343
REMARK  145  A    between atoms: _342  and  _345
REMARK  146  A    between atoms: _345  and  _346
REMARK  147  A    between atoms: _349  and  _351
REMARK  148  A    between atoms: _351  and  _352
REMARK  149  A    between atoms: _351  and  _354
REMARK  150  A    between atoms: _354  and  _355
REMARK  151  A    between atoms: _360  and  _362
REMARK  152  A    between atoms: _362  and  _363
REMARK  153  A    between atoms: _362  and  _365
REMARK  154  A    between atoms: _365  and  _366
REMARK  155  A    between atoms: _369  and  _371
REMARK  156  A    between atoms: _371  and  _372
REMARK  157  A    between atoms: _371  and  _374
REMARK  158  A    between atoms: _374  and  _375
REMARK  159  A    between atoms: _381  and  _383
REMARK  160  A    between atoms: _383  and  _384
REMARK  161  A    between atoms: _383  and  _386
REMARK  162  A    between atoms: _386  and  _387
REMARK  163  A    between atoms: _387  and  _388
REMARK  164  A    between atoms: _388  and  _389
REMARK  165  A    between atoms: _398  and  _400
REMARK  166  A    between atoms: _400  and  _401
REMARK  167  A    between atoms: _400  and  _403
REMARK  168  A    between atoms: _406  and  _408
REMARK  169  A    between atoms: _408  and  _409
REMARK  170  A    between atoms: _408  and  _411
REMARK  171  A    between atoms: _411  and  _412
REMARK  172  A    between atoms: _414  and  _416
REMARK  173  A    between atoms: _416  and  _417
REMARK  174  A    between atoms: _416  and  _419
REMARK  175  A    between atoms: _419  and  _420
REMARK  176  A    between atoms: _426  and  _428
REMARK  177  A    between atoms: _428  and  _429
REMARK  178  A    between atoms: _432  and  _433
REMARK  179  A    between atoms: _438  and  _440
REMARK  180  A    between atoms: _440  and  _441
REMARK  181  A    between atoms: _440  and  _443
REMARK  182  A    between atoms: _443  and  _444
REMARK  183  A    between atoms: _450  and  _452
REMARK  184  A    between atoms: _452  and  _453
REMARK  185  A    between atoms: _452  and  _455
REMARK  186  A    between atoms: _455  and  _456
REMARK  187  A    between atoms: _462  and  _464
REMARK  188  A    between atoms: _464  and  _465
REMARK  189  A    between atoms: _464  and  _467
REMARK  190  A    between atoms: _467  and  _468
REMARK  191  A    between atoms: _468  and  _469
REMARK  192  A    between atoms: _469  and  _470
REMARK  193  A    between atoms: _479  and  _481
REMARK  194  A    between atoms: _481  and  _482
REMARK  195  A    between atoms: _484  and  _486
REMARK  196  A    between atoms: _486  and  _487
REMARK  197  A    between atoms: _486  and  _489
REMARK  198  A    between atoms: _489  and  _490
REMARK  199  A    between atoms: _493  and  _495
REMARK  200  A    between atoms: _495  and  _496
REMARK  201  A    between atoms: _498  and  _500
REMARK  202  A    between atoms: _500  and  _501
REMARK  203  A    between atoms: _500  and  _503
REMARK  204  A    between atoms: _503  and  _504
REMARK  205  A    between atoms: _504  and  _505
REMARK  206  A    between atoms: _507  and  _509
REMARK  207  A    between atoms: _509  and  _510
REMARK  208  A    between atoms: _513  and  _515
REMARK  209  A    between atoms: _515  and  _516
REMARK  210  A    between atoms: _515  and  _518
REMARK  211  A    between atoms: _518  and  _519
REMARK  212  A    between atoms: _521  and  _523
REMARK  213  A    between atoms: _523  and  _524
REMARK  214  A    between atoms: _523  and  _526
REMARK  215  A    between atoms: _526  and  _527
REMARK  216  A    between atoms: _530  and  _532
REMARK  217  A    between atoms: _532  and  _533
REMARK  218  A    between atoms: _532  and  _535
REMARK  219  A    between atoms: _535  and  _536
REMARK  220  A    between atoms: _541  and  _543
REMARK  221  A    between atoms: _543  and  _544
REMARK  222  A    between atoms: _543  and  _546
REMARK  223  A    between atoms: _546  and  _547
REMARK  224  A    between atoms: _552  and  _554
REMARK  225  A    between atoms: _554  and  _555
REMARK  226  A    between atoms: _554  and  _557
REMARK  227  A    between atoms: _560  and  _562
REMARK  228  A    between atoms: _562  and  _563
REMARK  229  A    between atoms: _562  and  _565
REMARK  230  A    between atoms: _565  and  _566
REMARK  231  A    between atoms: _571  and  _572
REMARK                            x       y       z     vdW  Elec       q    Type
REMARK                         _______ _______ _______ _____ _____    ______ ____
ROOT
ATOM      1  O   HOH     1      13.933   8.764  19.528  0.00  0.00    +0.000 OA
ENDROOT
TORSDOF 0
REMARK  Name = ../refined-set-2016/2i2c/2i2c_pocket.pdb
REMARK  231 active torsions:
REMARK  status: ('A' for Active; 'I' for Inactive)
REMARK    1  A    between atoms: _1  and  _3
REMARK    2  A    between atoms: _3  and  _4
REMARK    3  A    between atoms: _6  and  _8
REMARK    4  A    between atoms: _8  and  _9
REMARK    5  A    between atoms: _8  and  _11
REMARK    6  A    between atoms: _11  and  _12
REMARK    7  A    between atoms: _15  and  _17
REMARK    8  A    between atoms: _17  and  _18
REMARK    9  A    between atoms: _20  and  _22
REMARK   10  A    between atoms: _22  and  _23
REMARK   11  A    between atoms: _22  and  _25
REMARK   12  A    between atoms: _25  and  _26
REMARK   13  A    between atoms: _29  and  _31
REMARK   14  A    between atoms: _31  and  _32
REMARK   15  A    between atoms: _31  and  _34
REMARK   16  A    between atoms: _34  and  _35
REMARK   17  A    between atoms: _41  and  _43
REMARK   18  A    between atoms: _43  and  _44
REMARK   19  A    between atoms: _43  and  _46
REMARK   20  A    between atoms: _46  and  _47
REMARK   21  A    between atoms: _50  and  _52
REMARK   22  A    between atoms: _52  and  _53
REMARK   23  A    between atoms: _52  and  _55
REMARK   24  A    between atoms: _55  and  _56
REMARK   25  A    between atoms: _58  and  _60
REMARK   26  A    between atoms: _60  and  _61
REMARK   27  A    between atoms: _60  and  _63
REMARK   28  A    between atoms: _63  and  _64
REMARK   29  A    between atoms: _69  and  _71
REMARK   30  A    between atoms: _71  and  _72
REMARK   31  A    between atoms: _71  and  _74
REMARK   32  A    between atoms: _74  and  _75
REMARK   33  A    between atoms: _80  and  _82
REMARK   34  A    between atoms: _82  and  _83
REMARK   35  A    between atoms: _82  and  _85
REMARK   36  A    between atoms: _85  and  _86
REMARK   37  A    between atoms: _89  and  _91
REMARK   38  A    between atoms: _91  and  _92
REMARK   39  A    between atoms: _94  and  _96
REMARK   40  A    between atoms: _96  and  _97
REMARK   41  A    between atoms: _96  and  _99
REMARK   42  A    between atoms: _99  and  _100
REMARK   43  A    between atoms: _106  and  _108
REMARK   44  A    between atoms: _108  and  _109
REMARK   45  A    between atoms: _108  and  _111
REMARK   46  A    between atoms: _111  and  _112
REMARK   47  A    between atoms: _117  and  _118
REMARK   48  A    between atoms: _120  and  _122
REMARK   49  A    between atoms: _122  and  _123
REMARK   50  A    between atoms: _126  and  _128
REMARK   51  A    between atoms: _128  and  _129
REMARK   52  A    between atoms: _132  and  _134
REMARK   53  A    between atoms: _134  and  _135
REMARK   54  A    between atoms: _134  and  _137
REMARK   55  A    between atoms: _137  and  _138
REMARK   56  A    between atoms: _141  and  _143
REMARK   57  A    between atoms: _143  and  _144
REMARK   58  A    between atoms: _143  and  _146
REMARK   59  A    between atoms: _146  and  _147
REMARK   60  A    between atoms: _152  and  _154
REMARK   61  A    between atoms: _154  and  _155
REMARK   62  A    between atoms: _154  and  _157
REMARK   63  A    between atoms: _157  and  _158
REMARK   64  A    between atoms: _158  and  _159
REMARK   65  A    between atoms: _162  and  _164
REMARK   66  A    between atoms: _164  and  _165
REMARK   67  A    between atoms: _164  and  _167
REMARK   68  A    between atoms: _167  and  _168
REMARK   69  A    between atoms: _170  and  _172
REMARK   70  A    between atoms: _172  and  _173
REMARK   71  A    between atoms: _172  and  _175
REMARK   72  A    between atoms: _175  and  _176
REMARK   73  A    between atoms: _179  and  _181
REMARK   74  A    between atoms: _181  and  _182
REMARK   75  A    between atoms: _181  and  _184
REMARK   76  A    between atoms: _184  and  _185
REMARK   77  A    between atoms: _185  and  _186
REMARK   78  A    between atoms: _186  and  _187
REMARK   79  A    between atoms: _187  and  _188
REMARK   80  A    between atoms: _192  and  _194
REMARK   81  A    between atoms: _194  and  _195
REMARK   82  A    between atoms: _194  and  _197
REMARK   83  A    between atoms: _199  and  _201
REMARK   84  A    between atoms: _201  and  _202
REMARK   85  A    between atoms: _201  and  _204
REMARK   86  A    between atoms: _204  and  _205
REMARK   87  A    between atoms: _207  and  _209
REMARK   88  A    between atoms: _209  and  _210
REMARK   89  A    between atoms: _209  and  _212
REMARK   90  A    between atoms: _212  and  _213
REMARK   91  A    between atoms: _217  and  _218
REMARK   92  A    between atoms: _223  and  _225
REMARK   93  A    between atoms: _225  and  _226
REMARK   94  A    between atoms: _225  and  _228
REMARK   95  A    between atoms: _228  and  _229
REMARK   96  A    between atoms: _231  and  _233
REMARK   97  A    between atoms: _233  and  _234
REMARK   98  A    between atoms: _236  and  _238
REMARK   99  A    between atoms: _238  and  _239
REMARK  100  A    between atoms: _238  and  _241
REMARK  101  A    between atoms: _241  and  _242
REMARK  102  A    between atoms: _245  and  _247
REMARK  103  A    between atoms: _247  and  _248
REMARK  104  A    between atoms: _247  and  _250
REMARK  105  A    between atoms: _250  and  _251
REMARK  106  A    between atoms: _254  and  _256
REMARK  107  A    between atoms: _256  and  _257
REMARK  108  A    between atoms: _260  and  _262
REMARK  109  A    between atoms: _262  and  _263
REMARK  110  A    between atoms: _262  and  _265
REMARK  111  A    between atoms: _265  and  _266
REMARK  112  A    between atoms: _271  and  _272
REMARK  113  A    between atoms: _274  and  _276
REMARK  114  A    between atoms: _276  and  _277
REMARK  115  A    between atoms: _276  and  _279
REMARK  116  A    between atoms: _279  and  _280
REMARK  117  A    between atoms: _285  and  _287
REMARK  118  A    between atoms: _287  and  _288
REMARK  119  A    between atoms: _287  and  _290
REMARK  120  A    between atoms: _290  and  _291
REMARK  121  A    between atoms: _291  and  _292
REMARK  122  A    between atoms: _292  and  _293
REMARK  123  A    between atoms: _293  and  _294
REMARK  124  A    between atoms: _298  and  _300
REMARK  125  A    between atoms: _300  and  _301
REMARK  126  A    between atoms: _300  and  _303
REMARK  127  A    between atoms: _303  and  _304
REMARK  128  A    between atoms: _306  and  _308
REMARK  129  A    between atoms: _308  and  _309
REMARK  130  A    between atoms: _308  and  _311
REMARK  131  A    between atoms: _311  and  _312
REMARK  132  A    between atoms: _315  and  _317
REMARK  133  A    between atoms: _317  and  _318
REMARK  134  A    between atoms: _317  and  _320
REMARK  135  A    between atoms: _320  and  _321
REMARK  136  A    between atoms: _324  and  _326
REMARK  137  A    between atoms: _326  and  _327
REMARK  138  A    between atoms: _326  and  _329
REMARK  139  A    between atoms: _329  and  _330
REMARK  140  A    between atoms: _332  and  _334
REMARK  141  A    between atoms: _334  and  _335
REMARK  142  A    between atoms: _334  and  _337
REMARK  143  A    between atoms: _340  and  _342
REMARK  144  A    between atoms: _342  and  _343
REMARK  145  A    between atoms: _342  and  _345
REMARK  146  A    between atoms: _345  and  _346
REMARK  147  A    between atoms: _349  and  _351
REMARK  148  A    between atoms: _351  and  _352
REMARK  149  A    between atoms: _351  and  _354
REMARK  150  A    between atoms: _354  and  _355
REMARK  151  A    between atoms: _360  and  _362
REMARK  152  A    between atoms: _362  and  _363
REMARK  153  A    between atoms: _362  and  _365
REMARK  154  A    between atoms: _365  and  _366
REMARK  155  A    between atoms: _369  and  _371
REMARK  156  A    between atoms: _371  and  _372
REMARK  157  A    between atoms: _371  and  _374
REMARK  158  A    between atoms: _374  and  _375
REMARK  159  A    between atoms: _381  and  _383
REMARK  160  A    between atoms: _383  and  _384
REMARK  161  A    between atoms: _383  and  _386
REMARK  162  A    between atoms: _386  and  _387
REMARK  163  A    between atoms: _387  and  _388
REMARK  164  A    between atoms: _388  and  _389
REMARK  165  A    between atoms: _398  and  _400
REMARK  166  A    between atoms: _400  and  _401
REMARK  167  A    between atoms: _400  and  _403
REMARK  168  A    between atoms: _406  and  _408
REMARK  169  A    between atoms: _408  and  _409
REMARK  170  A    between atoms: _408  and  _411
REMARK  171  A    between atoms: _411  and  _412
REMARK  172  A    between atoms: _414  and  _416
REMARK  173  A    between atoms: _416  and  _417
REMARK  174  A    between atoms: _416  and  _419
REMARK  175  A    between atoms: _419  and  _420
REMARK  176  A    between atoms: _426  and  _428
REMARK  177  A    between atoms: _428  and  _429
REMARK  178  A    between atoms: _432  and  _433
REMARK  179  A    between atoms: _438  and  _440
REMARK  180  A    between atoms: _440  and  _441
REMARK  181  A    between atoms: _440  and  _443
REMARK  182  A    between atoms: _443  and  _444
REMARK  183  A    between atoms: _450  and  _452
REMARK  184  A    between atoms: _452  and  _453
REMARK  185  A    between atoms: _452  and  _455
REMARK  186  A    between atoms: _455  and  _456
REMARK  187  A    between atoms: _462  and  _464
REMARK  188  A    between atoms: _464  and  _465
REMARK  189  A    between atoms: _464  and  _467
REMARK  190  A    between atoms: _467  and  _468
REMARK  191  A    between atoms: _468  and  _469
REMARK  192  A    between atoms: _469  and  _470
REMARK  193  A    between atoms: _479  and  _481
REMARK  194  A    between atoms: _481  and  _482
REMARK  195  A    between atoms: _484  and  _486
REMARK  196  A    between atoms: _486  and  _487
REMARK  197  A    between atoms: _486  and  _489
REMARK  198  A    between atoms: _489  and  _490
REMARK  199  A    between atoms: _493  and  _495
REMARK  200  A    between atoms: _495  and  _496
REMARK  201  A    between atoms: _498  and  _500
REMARK  202  A    between atoms: _500  and  _501
REMARK  203  A    between atoms: _500  and  _503
REMARK  204  A    between atoms: _503  and  _504
REMARK  205  A    between atoms: _504  and  _505
REMARK  206  A    between atoms: _507  and  _509
REMARK  207  A    between atoms: _509  and  _510
REMARK  208  A    between atoms: _513  and  _515
REMARK  209  A    between atoms: _515  and  _516
REMARK  210  A    between atoms: _515  and  _518
REMARK  211  A    between atoms: _518  and  _519
REMARK  212  A    between atoms: _521  and  _523
REMARK  213  A    between atoms: _523  and  _524
REMARK  214  A    between atoms: _523  and  _526
REMARK  215  A    between atoms: _526  and  _527
REMARK  216  A    between atoms: _530  and  _532
REMARK  217  A    between atoms: _532  and  _533
REMARK  218  A    between atoms: _532  and  _535
REMARK  219  A    between atoms: _535  and  _536
REMARK  220  A    between atoms: _541  and  _543
REMARK  221  A    between atoms: _543  and  _544
REMARK  222  A    between atoms: _543  and  _546
REMARK  223  A    between atoms: _546  and  _547
REMARK  224  A    between atoms: _552  and  _554
REMARK  225  A    between atoms: _554  and  _555
REMARK  226  A    between atoms: _554  and  _557
REMARK  227  A    between atoms: _560  and  _562
REMARK  228  A    between atoms: _562  and  _563
REMARK  229  A    between atoms: _562  and  _565
REMARK  230  A    between atoms: _565  and  _566
REMARK  231  A    between atoms: _571  and  _572
REMARK                            x       y       z     vdW  Elec       q    Type
REMARK                         _______ _______ _______ _____ _____    ______ ____
ROOT
ATOM      1  O   HOH     1      14.563   4.072   5.468  0.00  0.00    +0.000 OA
ENDROOT
TORSDOF 0
REMARK  Name = ../refined-set-2016/2i2c/2i2c_pocket.pdb
REMARK  231 active torsions:
REMARK  status: ('A' for Active; 'I' for Inactive)
REMARK    1  A    between atoms: _1  and  _3
REMARK    2  A    between atoms: _3  and  _4
REMARK    3  A    between atoms: _6  and  _8
REMARK    4  A    between atoms: _8  and  _9
REMARK    5  A    between atoms: _8  and  _11
REMARK    6  A    between atoms: _11  and  _12
REMARK    7  A    between atoms: _15  and  _17
REMARK    8  A    between atoms: _17  and  _18
REMARK    9  A    between atoms: _20  and  _22
REMARK   10  A    between atoms: _22  and  _23
REMARK   11  A    between atoms: _22  and  _25
REMARK   12  A    between atoms: _25  and  _26
REMARK   13  A    between atoms: _29  and  _31
REMARK   14  A    between atoms: _31  and  _32
REMARK   15  A    between atoms: _31  and  _34
REMARK   16  A    between atoms: _34  and  _35
REMARK   17  A    between atoms: _41  and  _43
REMARK   18  A    between atoms: _43  and  _44
REMARK   19  A    between atoms: _43  and  _46
REMARK   20  A    between atoms: _46  and  _47
REMARK   21  A    between atoms: _50  and  _52
REMARK   22  A    between atoms: _52  and  _53
REMARK   23  A    between atoms: _52  and  _55
REMARK   24  A    between atoms: _55  and  _56
REMARK   25  A    between atoms: _58  and  _60
REMARK   26  A    between atoms: _60  and  _61
REMARK   27  A    between atoms: _60  and  _63
REMARK   28  A    between atoms: _63  and  _64
REMARK   29  A    between atoms: _69  and  _71
REMARK   30  A    between atoms: _71  and  _72
REMARK   31  A    between atoms: _71  and  _74
REMARK   32  A    between atoms: _74  and  _75
REMARK   33  A    between atoms: _80  and  _82
REMARK   34  A    between atoms: _82  and  _83
REMARK   35  A    between atoms: _82  and  _85
REMARK   36  A    between atoms: _85  and  _86
REMARK   37  A    between atoms: _89  and  _91
REMARK   38  A    between atoms: _91  and  _92
REMARK   39  A    between atoms: _94  and  _96
REMARK   40  A    between atoms: _96  and  _97
REMARK   41  A    between atoms: _96  and  _99
REMARK   42  A    between atoms: _99  and  _100
REMARK   43  A    between atoms: _106  and  _108
REMARK   44  A    between atoms: _108  and  _109
REMARK   45  A    between atoms: _108  and  _111
REMARK   46  A    between atoms: _111  and  _112
REMARK   47  A    between atoms: _117  and  _118
REMARK   48  A    between atoms: _120  and  _122
REMARK   49  A    between atoms: _122  and  _123
REMARK   50  A    between atoms: _126  and  _128
REMARK   51  A    between atoms: _128  and  _129
REMARK   52  A    between atoms: _132  and  _134
REMARK   53  A    between atoms: _134  and  _135
REMARK   54  A    between atoms: _134  and  _137
REMARK   55  A    between atoms: _137  and  _138
REMARK   56  A    between atoms: _141  and  _143
REMARK   57  A    between atoms: _143  and  _144
REMARK   58  A    between atoms: _143  and  _146
REMARK   59  A    between atoms: _146  and  _147
REMARK   60  A    between atoms: _152  and  _154
REMARK   61  A    between atoms: _154  and  _155
REMARK   62  A    between atoms: _154  and  _157
REMARK   63  A    between atoms: _157  and  _158
REMARK   64  A    between atoms: _158  and  _159
REMARK   65  A    between atoms: _162  and  _164
REMARK   66  A    between atoms: _164  and  _165
REMARK   67  A    between atoms: _164  and  _167
REMARK   68  A    between atoms: _167  and  _168
REMARK   69  A    between atoms: _170  and  _172
REMARK   70  A    between atoms: _172  and  _173
REMARK   71  A    between atoms: _172  and  _175
REMARK   72  A    between atoms: _175  and  _176
REMARK   73  A    between atoms: _179  and  _181
REMARK   74  A    between atoms: _181  and  _182
REMARK   75  A    between atoms: _181  and  _184
REMARK   76  A    between atoms: _184  and  _185
REMARK   77  A    between atoms: _185  and  _186
REMARK   78  A    between atoms: _186  and  _187
REMARK   79  A    between atoms: _187  and  _188
REMARK   80  A    between atoms: _192  and  _194
REMARK   81  A    between atoms: _194  and  _195
REMARK   82  A    between atoms: _194  and  _197
REMARK   83  A    between atoms: _199  and  _201
REMARK   84  A    between atoms: _201  and  _202
REMARK   85  A    between atoms: _201  and  _204
REMARK   86  A    between atoms: _204  and  _205
REMARK   87  A    between atoms: _207  and  _209
REMARK   88  A    between atoms: _209  and  _210
REMARK   89  A    between atoms: _209  and  _212
REMARK   90  A    between atoms: _212  and  _213
REMARK   91  A    between atoms: _217  and  _218
REMARK   92  A    between atoms: _223  and  _225
REMARK   93  A    between atoms: _225  and  _226
REMARK   94  A    between atoms: _225  and  _228
REMARK   95  A    between atoms: _228  and  _229
REMARK   96  A    between atoms: _231  and  _233
REMARK   97  A    between atoms: _233  and  _234
REMARK   98  A    between atoms: _236  and  _238
REMARK   99  A    between atoms: _238  and  _239
REMARK  100  A    between atoms: _238  and  _241
REMARK  101  A    between atoms: _241  and  _242
REMARK  102  A    between atoms: _245  and  _247
REMARK  103  A    between atoms: _247  and  _248
REMARK  104  A    between atoms: _247  and  _250
REMARK  105  A    between atoms: _250  and  _251
REMARK  106  A    between atoms: _254  and  _256
REMARK  107  A    between atoms: _256  and  _257
REMARK  108  A    between atoms: _260  and  _262
REMARK  109  A    between atoms: _262  and  _263
REMARK  110  A    between atoms: _262  and  _265
REMARK  111  A    between atoms: _265  and  _266
REMARK  112  A    between atoms: _271  and  _272
REMARK  113  A    between atoms: _274  and  _276
REMARK  114  A    between atoms: _276  and  _277
REMARK  115  A    between atoms: _276  and  _279
REMARK  116  A    between atoms: _279  and  _280
REMARK  117  A    between atoms: _285  and  _287
REMARK  118  A    between atoms: _287  and  _288
REMARK  119  A    between atoms: _287  and  _290
REMARK  120  A    between atoms: _290  and  _291
REMARK  121  A    between atoms: _291  and  _292
REMARK  122  A    between atoms: _292  and  _293
REMARK  123  A    between atoms: _293  and  _294
REMARK  124  A    between atoms: _298  and  _300
REMARK  125  A    between atoms: _300  and  _301
REMARK  126  A    between atoms: _300  and  _303
REMARK  127  A    between atoms: _303  and  _304
REMARK  128  A    between atoms: _306  and  _308
REMARK  129  A    between atoms: _308  and  _309
REMARK  130  A    between atoms: _308  and  _311
REMARK  131  A    between atoms: _311  and  _312
REMARK  132  A    between atoms: _315  and  _317
REMARK  133  A    between atoms: _317  and  _318
REMARK  134  A    between atoms: _317  and  _320
REMARK  135  A    between atoms: _320  and  _321
REMARK  136  A    between atoms: _324  and  _326
REMARK  137  A    between atoms: _326  and  _327
REMARK  138  A    between atoms: _326  and  _329
REMARK  139  A    between atoms: _329  and  _330
REMARK  140  A    between atoms: _332  and  _334
REMARK  141  A    between atoms: _334  and  _335
REMARK  142  A    between atoms: _334  and  _337
REMARK  143  A    between atoms: _340  and  _342
REMARK  144  A    between atoms: _342  and  _343
REMARK  145  A    between atoms: _342  and  _345
REMARK  146  A    between atoms: _345  and  _346
REMARK  147  A    between atoms: _349  and  _351
REMARK  148  A    between atoms: _351  and  _352
REMARK  149  A    between atoms: _351  and  _354
REMARK  150  A    between atoms: _354  and  _355
REMARK  151  A    between atoms: _360  and  _362
REMARK  152  A    between atoms: _362  and  _363
REMARK  153  A    between atoms: _362  and  _365
REMARK  154  A    between atoms: _365  and  _366
REMARK  155  A    between atoms: _369  and  _371
REMARK  156  A    between atoms: _371  and  _372
REMARK  157  A    between atoms: _371  and  _374
REMARK  158  A    between atoms: _374  and  _375
REMARK  159  A    between atoms: _381  and  _383
REMARK  160  A    between atoms: _383  and  _384
REMARK  161  A    between atoms: _383  and  _386
REMARK  162  A    between atoms: _386  and  _387
REMARK  163  A    between atoms: _387  and  _388
REMARK  164  A    between atoms: _388  and  _389
REMARK  165  A    between atoms: _398  and  _400
REMARK  166  A    between atoms: _400  and  _401
REMARK  167  A    between atoms: _400  and  _403
REMARK  168  A    between atoms: _406  and  _408
REMARK  169  A    between atoms: _408  and  _409
REMARK  170  A    between atoms: _408  and  _411
REMARK  171  A    between atoms: _411  and  _412
REMARK  172  A    between atoms: _414  and  _416
REMARK  173  A    between atoms: _416  and  _417
REMARK  174  A    between atoms: _416  and  _419
REMARK  175  A    between atoms: _419  and  _420
REMARK  176  A    between atoms: _426  and  _428
REMARK  177  A    between atoms: _428  and  _429
REMARK  178  A    between atoms: _432  and  _433
REMARK  179  A    between atoms: _438  and  _440
REMARK  180  A    between atoms: _440  and  _441
REMARK  181  A    between atoms: _440  and  _443
REMARK  182  A    between atoms: _443  and  _444
REMARK  183  A    between atoms: _450  and  _452
REMARK  184  A    between atoms: _452  and  _453
REMARK  185  A    between atoms: _452  and  _455
REMARK  186  A    between atoms: _455  and  _456
REMARK  187  A    between atoms: _462  and  _464
REMARK  188  A    between atoms: _464  and  _465
REMARK  189  A    between atoms: _464  and  _467
REMARK  190  A    between atoms: _467  and  _468
REMARK  191  A    between atoms: _468  and  _469
REMARK  192  A    between atoms: _469  and  _470
REMARK  193  A    between atoms: _479  and  _481
REMARK  194  A    between atoms: _481  and  _482
REMARK  195  A    between atoms: _484  and  _486
REMARK  196  A    between atoms: _486  and  _487
REMARK  197  A    between atoms: _486  and  _489
REMARK  198  A    between atoms: _489  and  _490
REMARK  199  A    between atoms: _493  and  _495
REMARK  200  A    between atoms: _495  and  _496
REMARK  201  A    between atoms: _498  and  _500
REMARK  202  A    between atoms: _500  and  _501
REMARK  203  A    between atoms: _500  and  _503
REMARK  204  A    between atoms: _503  and  _504
REMARK  205  A    between atoms: _504  and  _505
REMARK  206  A    between atoms: _507  and  _509
REMARK  207  A    between atoms: _509  and  _510
REMARK  208  A    between atoms: _513  and  _515
REMARK  209  A    between atoms: _515  and  _516
REMARK  210  A    between atoms: _515  and  _518
REMARK  211  A    between atoms: _518  and  _519
REMARK  212  A    between atoms: _521  and  _523
REMARK  213  A    between atoms: _523  and  _524
REMARK  214  A    between atoms: _523  and  _526
REMARK  215  A    between atoms: _526  and  _527
REMARK  216  A    between atoms: _530  and  _532
REMARK  217  A    between atoms: _532  and  _533
REMARK  218  A    between atoms: _532  and  _535
REMARK  219  A    between atoms: _535  and  _536
REMARK  220  A    between atoms: _541  and  _543
REMARK  221  A    between atoms: _543  and  _544
REMARK  222  A    between atoms: _543  and  _546
REMARK  223  A    between atoms: _546  and  _547
REMARK  224  A    between atoms: _552  and  _554
REMARK  225  A    between atoms: _554  and  _555
REMARK  226  A    between atoms: _554  and  _557
REMARK  227  A    between atoms: _560  and  _562
REMARK  228  A    between atoms: _562  and  _563
REMARK  229  A    between atoms: _562  and  _565
REMARK  230  A    between atoms: _565  and  _566
REMARK  231  A    between atoms: _571  and  _572
REMARK                            x       y       z     vdW  Elec       q    Type
REMARK                         _______ _______ _______ _____ _____    ______ ____
ROOT
ATOM      1  O   HOH     1      17.722  11.485  22.224  0.00  0.00    +0.000 OA
ENDROOT
TORSDOF 0
REMARK  Name = ../refined-set-2016/2i2c/2i2c_pocket.pdb
REMARK  231 active torsions:
REMARK  status: ('A' for Active; 'I' for Inactive)
REMARK    1  A    between atoms: _1  and  _3
REMARK    2  A    between atoms: _3  and  _4
REMARK    3  A    between atoms: _6  and  _8
REMARK    4  A    between atoms: _8  and  _9
REMARK    5  A    between atoms: _8  and  _11
REMARK    6  A    between atoms: _11  and  _12
REMARK    7  A    between atoms: _15  and  _17
REMARK    8  A    between atoms: _17  and  _18
REMARK    9  A    between atoms: _20  and  _22
REMARK   10  A    between atoms: _22  and  _23
REMARK   11  A    between atoms: _22  and  _25
REMARK   12  A    between atoms: _25  and  _26
REMARK   13  A    between atoms: _29  and  _31
REMARK   14  A    between atoms: _31  and  _32
REMARK   15  A    between atoms: _31  and  _34
REMARK   16  A    between atoms: _34  and  _35
REMARK   17  A    between atoms: _41  and  _43
REMARK   18  A    between atoms: _43  and  _44
REMARK   19  A    between atoms: _43  and  _46
REMARK   20  A    between atoms: _46  and  _47
REMARK   21  A    between atoms: _50  and  _52
REMARK   22  A    between atoms: _52  and  _53
REMARK   23  A    between atoms: _52  and  _55
REMARK   24  A    between atoms: _55  and  _56
REMARK   25  A    between atoms: _58  and  _60
REMARK   26  A    between atoms: _60  and  _61
REMARK   27  A    between atoms: _60  and  _63
REMARK   28  A    between atoms: _63  and  _64
REMARK   29  A    between atoms: _69  and  _71
REMARK   30  A    between atoms: _71  and  _72
REMARK   31  A    between atoms: _71  and  _74
REMARK   32  A    between atoms: _74  and  _75
REMARK   33  A    between atoms: _80  and  _82
REMARK   34  A    between atoms: _82  and  _83
REMARK   35  A    between atoms: _82  and  _85
REMARK   36  A    between atoms: _85  and  _86
REMARK   37  A    between atoms: _89  and  _91
REMARK   38  A    between atoms: _91  and  _92
REMARK   39  A    between atoms: _94  and  _96
REMARK   40  A    between atoms: _96  and  _97
REMARK   41  A    between atoms: _96  and  _99
REMARK   42  A    between atoms: _99  and  _100
REMARK   43  A    between atoms: _106  and  _108
REMARK   44  A    between atoms: _108  and  _109
REMARK   45  A    between atoms: _108  and  _111
REMARK   46  A    between atoms: _111  and  _112
REMARK   47  A    between atoms: _117  and  _118
REMARK   48  A    between atoms: _120  and  _122
REMARK   49  A    between atoms: _122  and  _123
REMARK   50  A    between atoms: _126  and  _128
REMARK   51  A    between atoms: _128  and  _129
REMARK   52  A    between atoms: _132  and  _134
REMARK   53  A    between atoms: _134  and  _135
REMARK   54  A    between atoms: _134  and  _137
REMARK   55  A    between atoms: _137  and  _138
REMARK   56  A    between atoms: _141  and  _143
REMARK   57  A    between atoms: _143  and  _144
REMARK   58  A    between atoms: _143  and  _146
REMARK   59  A    between atoms: _146  and  _147
REMARK   60  A    between atoms: _152  and  _154
REMARK   61  A    between atoms: _154  and  _155
REMARK   62  A    between atoms: _154  and  _157
REMARK   63  A    between atoms: _157  and  _158
REMARK   64  A    between atoms: _158  and  _159
REMARK   65  A    between atoms: _162  and  _164
REMARK   66  A    between atoms: _164  and  _165
REMARK   67  A    between atoms: _164  and  _167
REMARK   68  A    between atoms: _167  and  _168
REMARK   69  A    between atoms: _170  and  _172
REMARK   70  A    between atoms: _172  and  _173
REMARK   71  A    between atoms: _172  and  _175
REMARK   72  A    between atoms: _175  and  _176
REMARK   73  A    between atoms: _179  and  _181
REMARK   74  A    between atoms: _181  and  _182
REMARK   75  A    between atoms: _181  and  _184
REMARK   76  A    between atoms: _184  and  _185
REMARK   77  A    between atoms: _185  and  _186
REMARK   78  A    between atoms: _186  and  _187
REMARK   79  A    between atoms: _187  and  _188
REMARK   80  A    between atoms: _192  and  _194
REMARK   81  A    between atoms: _194  and  _195
REMARK   82  A    between atoms: _194  and  _197
REMARK   83  A    between atoms: _199  and  _201
REMARK   84  A    between atoms: _201  and  _202
REMARK   85  A    between atoms: _201  and  _204
REMARK   86  A    between atoms: _204  and  _205
REMARK   87  A    between atoms: _207  and  _209
REMARK   88  A    between atoms: _209  and  _210
REMARK   89  A    between atoms: _209  and  _212
REMARK   90  A    between atoms: _212  and  _213
REMARK   91  A    between atoms: _217  and  _218
REMARK   92  A    between atoms: _223  and  _225
REMARK   93  A    between atoms: _225  and  _226
REMARK   94  A    between atoms: _225  and  _228
REMARK   95  A    between atoms: _228  and  _229
REMARK   96  A    between atoms: _231  and  _233
REMARK   97  A    between atoms: _233  and  _234
REMARK   98  A    between atoms: _236  and  _238
REMARK   99  A    between atoms: _238  and  _239
REMARK  100  A    between atoms: _238  and  _241
REMARK  101  A    between atoms: _241  and  _242
REMARK  102  A    between atoms: _245  and  _247
REMARK  103  A    between atoms: _247  and  _248
REMARK  104  A    between atoms: _247  and  _250
REMARK  105  A    between atoms: _250  and  _251
REMARK  106  A    between atoms: _254  and  _256
REMARK  107  A    between atoms: _256  and  _257
REMARK  108  A    between atoms: _260  and  _262
REMARK  109  A    between atoms: _262  and  _263
REMARK  110  A    between atoms: _262  and  _265
REMARK  111  A    between atoms: _265  and  _266
REMARK  112  A    between atoms: _271  and  _272
REMARK  113  A    between atoms: _274  and  _276
REMARK  114  A    between atoms: _276  and  _277
REMARK  115  A    between atoms: _276  and  _279
REMARK  116  A    between atoms: _279  and  _280
REMARK  117  A    between atoms: _285  and  _287
REMARK  118  A    between atoms: _287  and  _288
REMARK  119  A    between atoms: _287  and  _290
REMARK  120  A    between atoms: _290  and  _291
REMARK  121  A    between atoms: _291  and  _292
REMARK  122  A    between atoms: _292  and  _293
REMARK  123  A    between atoms: _293  and  _294
REMARK  124  A    between atoms: _298  and  _300
REMARK  125  A    between atoms: _300  and  _301
REMARK  126  A    between atoms: _300  and  _303
REMARK  127  A    between atoms: _303  and  _304
REMARK  128  A    between atoms: _306  and  _308
REMARK  129  A    between atoms: _308  and  _309
REMARK  130  A    between atoms: _308  and  _311
REMARK  131  A    between atoms: _311  and  _312
REMARK  132  A    between atoms: _315  and  _317
REMARK  133  A    between atoms: _317  and  _318
REMARK  134  A    between atoms: _317  and  _320
REMARK  135  A    between atoms: _320  and  _321
REMARK  136  A    between atoms: _324  and  _326
REMARK  137  A    between atoms: _326  and  _327
REMARK  138  A    between atoms: _326  and  _329
REMARK  139  A    between atoms: _329  and  _330
REMARK  140  A    between atoms: _332  and  _334
REMARK  141  A    between atoms: _334  and  _335
REMARK  142  A    between atoms: _334  and  _337
REMARK  143  A    between atoms: _340  and  _342
REMARK  144  A    between atoms: _342  and  _343
REMARK  145  A    between atoms: _342  and  _345
REMARK  146  A    between atoms: _345  and  _346
REMARK  147  A    between atoms: _349  and  _351
REMARK  148  A    between atoms: _351  and  _352
REMARK  149  A    between atoms: _351  and  _354
REMARK  150  A    between atoms: _354  and  _355
REMARK  151  A    between atoms: _360  and  _362
REMARK  152  A    between atoms: _362  and  _363
REMARK  153  A    between atoms: _362  and  _365
REMARK  154  A    between atoms: _365  and  _366
REMARK  155  A    between atoms: _369  and  _371
REMARK  156  A    between atoms: _371  and  _372
REMARK  157  A    between atoms: _371  and  _374
REMARK  158  A    between atoms: _374  and  _375
REMARK  159  A    between atoms: _381  and  _383
REMARK  160  A    between atoms: _383  and  _384
REMARK  161  A    between atoms: _383  and  _386
REMARK  162  A    between atoms: _386  and  _387
REMARK  163  A    between atoms: _387  and  _388
REMARK  164  A    between atoms: _388  and  _389
REMARK  165  A    between atoms: _398  and  _400
REMARK  166  A    between atoms: _400  and  _401
REMARK  167  A    between atoms: _400  and  _403
REMARK  168  A    between atoms: _406  and  _408
REMARK  169  A    between atoms: _408  and  _409
REMARK  170  A    between atoms: _408  and  _411
REMARK  171  A    between atoms: _411  and  _412
REMARK  172  A    between atoms: _414  and  _416
REMARK  173  A    between atoms: _416  and  _417
REMARK  174  A    between atoms: _416  and  _419
REMARK  175  A    between atoms: _419  and  _420
REMARK  176  A    between atoms: _426  and  _428
REMARK  177  A    between atoms: _428  and  _429
REMARK  178  A    between atoms: _432  and  _433
REMARK  179  A    between atoms: _438  and  _440
REMARK  180  A    between atoms: _440  and  _441
REMARK  181  A    between atoms: _440  and  _443
REMARK  182  A    between atoms: _443  and  _444
REMARK  183  A    between atoms: _450  and  _452
REMARK  184  A    between atoms: _452  and  _453
REMARK  185  A    between atoms: _452  and  _455
REMARK  186  A    between atoms: _455  and  _456
REMARK  187  A    between atoms: _462  and  _464
REMARK  188  A    between atoms: _464  and  _465
REMARK  189  A    between atoms: _464  and  _467
REMARK  190  A    between atoms: _467  and  _468
REMARK  191  A    between atoms: _468  and  _469
REMARK  192  A    between atoms: _469  and  _470
REMARK  193  A    between atoms: _479  and  _481
REMARK  194  A    between atoms: _481  and  _482
REMARK  195  A    between atoms: _484  and  _486
REMARK  196  A    between atoms: _486  and  _487
REMARK  197  A    between atoms: _486  and  _489
REMARK  198  A    between atoms: _489  and  _490
REMARK  199  A    between atoms: _493  and  _495
REMARK  200  A    between atoms: _495  and  _496
REMARK  201  A    between atoms: _498  and  _500
REMARK  202  A    between atoms: _500  and  _501
REMARK  203  A    between atoms: _500  and  _503
REMARK  204  A    between atoms: _503  and  _504
REMARK  205  A    between atoms: _504  and  _505
REMARK  206  A    between atoms: _507  and  _509
REMARK  207  A    between atoms: _509  and  _510
REMARK  208  A    between atoms: _513  and  _515
REMARK  209  A    between atoms: _515  and  _516
REMARK  210  A    between atoms: _515  and  _518
REMARK  211  A    between atoms: _518  and  _519
REMARK  212  A    between atoms: _521  and  _523
REMARK  213  A    between atoms: _523  and  _524
REMARK  214  A    between atoms: _523  and  _526
REMARK  215  A    between atoms: _526  and  _527
REMARK  216  A    between atoms: _530  and  _532
REMARK  217  A    between atoms: _532  and  _533
REMARK  218  A    between atoms: _532  and  _535
REMARK  219  A    between atoms: _535  and  _536
REMARK  220  A    between atoms: _541  and  _543
REMARK  221  A    between atoms: _543  and  _544
REMARK  222  A    between atoms: _543  and  _546
REMARK  223  A    between atoms: _546  and  _547
REMARK  224  A    between atoms: _552  and  _554
REMARK  225  A    between atoms: _554  and  _555
REMARK  226  A    between atoms: _554  and  _557
REMARK  227  A    between atoms: _560  and  _562
REMARK  228  A    between atoms: _562  and  _563
REMARK  229  A    between atoms: _562  and  _565
REMARK  230  A    between atoms: _565  and  _566
REMARK  231  A    between atoms: _571  and  _572
REMARK                            x       y       z     vdW  Elec       q    Type
REMARK                         _______ _______ _______ _____ _____    ______ ____
ROOT
ATOM      1  O   HOH     1      23.537   7.072  10.930  0.00  0.00    +0.000 OA
ENDROOT
TORSDOF 0
REMARK  Name = ../refined-set-2016/2i2c/2i2c_pocket.pdb
REMARK  231 active torsions:
REMARK  status: ('A' for Active; 'I' for Inactive)
REMARK    1  A    between atoms: _1  and  _3
REMARK    2  A    between atoms: _3  and  _4
REMARK    3  A    between atoms: _6  and  _8
REMARK    4  A    between atoms: _8  and  _9
REMARK    5  A    between atoms: _8  and  _11
REMARK    6  A    between atoms: _11  and  _12
REMARK    7  A    between atoms: _15  and  _17
REMARK    8  A    between atoms: _17  and  _18
REMARK    9  A    between atoms: _20  and  _22
REMARK   10  A    between atoms: _22  and  _23
REMARK   11  A    between atoms: _22  and  _25
REMARK   12  A    between atoms: _25  and  _26
REMARK   13  A    between atoms: _29  and  _31
REMARK   14  A    between atoms: _31  and  _32
REMARK   15  A    between atoms: _31  and  _34
REMARK   16  A    between atoms: _34  and  _35
REMARK   17  A    between atoms: _41  and  _43
REMARK   18  A    between atoms: _43  and  _44
REMARK   19  A    between atoms: _43  and  _46
REMARK   20  A    between atoms: _46  and  _47
REMARK   21  A    between atoms: _50  and  _52
REMARK   22  A    between atoms: _52  and  _53
REMARK   23  A    between atoms: _52  and  _55
REMARK   24  A    between atoms: _55  and  _56
REMARK   25  A    between atoms: _58  and  _60
REMARK   26  A    between atoms: _60  and  _61
REMARK   27  A    between atoms: _60  and  _63
REMARK   28  A    between atoms: _63  and  _64
REMARK   29  A    between atoms: _69  and  _71
REMARK   30  A    between atoms: _71  and  _72
REMARK   31  A    between atoms: _71  and  _74
REMARK   32  A    between atoms: _74  and  _75
REMARK   33  A    between atoms: _80  and  _82
REMARK   34  A    between atoms: _82  and  _83
REMARK   35  A    between atoms: _82  and  _85
REMARK   36  A    between atoms: _85  and  _86
REMARK   37  A    between atoms: _89  and  _91
REMARK   38  A    between atoms: _91  and  _92
REMARK   39  A    between atoms: _94  and  _96
REMARK   40  A    between atoms: _96  and  _97
REMARK   41  A    between atoms: _96  and  _99
REMARK   42  A    between atoms: _99  and  _100
REMARK   43  A    between atoms: _106  and  _108
REMARK   44  A    between atoms: _108  and  _109
REMARK   45  A    between atoms: _108  and  _111
REMARK   46  A    between atoms: _111  and  _112
REMARK   47  A    between atoms: _117  and  _118
REMARK   48  A    between atoms: _120  and  _122
REMARK   49  A    between atoms: _122  and  _123
REMARK   50  A    between atoms: _126  and  _128
REMARK   51  A    between atoms: _128  and  _129
REMARK   52  A    between atoms: _132  and  _134
REMARK   53  A    between atoms: _134  and  _135
REMARK   54  A    between atoms: _134  and  _137
REMARK   55  A    between atoms: _137  and  _138
REMARK   56  A    between atoms: _141  and  _143
REMARK   57  A    between atoms: _143  and  _144
REMARK   58  A    between atoms: _143  and  _146
REMARK   59  A    between atoms: _146  and  _147
REMARK   60  A    between atoms: _152  and  _154
REMARK   61  A    between atoms: _154  and  _155
REMARK   62  A    between atoms: _154  and  _157
REMARK   63  A    between atoms: _157  and  _158
REMARK   64  A    between atoms: _158  and  _159
REMARK   65  A    between atoms: _162  and  _164
REMARK   66  A    between atoms: _164  and  _165
REMARK   67  A    between atoms: _164  and  _167
REMARK   68  A    between atoms: _167  and  _168
REMARK   69  A    between atoms: _170  and  _172
REMARK   70  A    between atoms: _172  and  _173
REMARK   71  A    between atoms: _172  and  _175
REMARK   72  A    between atoms: _175  and  _176
REMARK   73  A    between atoms: _179  and  _181
REMARK   74  A    between atoms: _181  and  _182
REMARK   75  A    between atoms: _181  and  _184
REMARK   76  A    between atoms: _184  and  _185
REMARK   77  A    between atoms: _185  and  _186
REMARK   78  A    between atoms: _186  and  _187
REMARK   79  A    between atoms: _187  and  _188
REMARK   80  A    between atoms: _192  and  _194
REMARK   81  A    between atoms: _194  and  _195
REMARK   82  A    between atoms: _194  and  _197
REMARK   83  A    between atoms: _199  and  _201
REMARK   84  A    between atoms: _201  and  _202
REMARK   85  A    between atoms: _201  and  _204
REMARK   86  A    between atoms: _204  and  _205
REMARK   87  A    between atoms: _207  and  _209
REMARK   88  A    between atoms: _209  and  _210
REMARK   89  A    between atoms: _209  and  _212
REMARK   90  A    between atoms: _212  and  _213
REMARK   91  A    between atoms: _217  and  _218
REMARK   92  A    between atoms: _223  and  _225
REMARK   93  A    between atoms: _225  and  _226
REMARK   94  A    between atoms: _225  and  _228
REMARK   95  A    between atoms: _228  and  _229
REMARK   96  A    between atoms: _231  and  _233
REMARK   97  A    between atoms: _233  and  _234
REMARK   98  A    between atoms: _236  and  _238
REMARK   99  A    between atoms: _238  and  _239
REMARK  100  A    between atoms: _238  and  _241
REMARK  101  A    between atoms: _241  and  _242
REMARK  102  A    between atoms: _245  and  _247
REMARK  103  A    between atoms: _247  and  _248
REMARK  104  A    between atoms: _247  and  _250
REMARK  105  A    between atoms: _250  and  _251
REMARK  106  A    between atoms: _254  and  _256
REMARK  107  A    between atoms: _256  and  _257
REMARK  108  A    between atoms: _260  and  _262
REMARK  109  A    between atoms: _262  and  _263
REMARK  110  A    between atoms: _262  and  _265
REMARK  111  A    between atoms: _265  and  _266
REMARK  112  A    between atoms: _271  and  _272
REMARK  113  A    between atoms: _274  and  _276
REMARK  114  A    between atoms: _276  and  _277
REMARK  115  A    between atoms: _276  and  _279
REMARK  116  A    between atoms: _279  and  _280
REMARK  117  A    between atoms: _285  and  _287
REMARK  118  A    between atoms: _287  and  _288
REMARK  119  A    between atoms: _287  and  _290
REMARK  120  A    between atoms: _290  and  _291
REMARK  121  A    between atoms: _291  and  _292
REMARK  122  A    between atoms: _292  and  _293
REMARK  123  A    between atoms: _293  and  _294
REMARK  124  A    between atoms: _298  and  _300
REMARK  125  A    between atoms: _300  and  _301
REMARK  126  A    between atoms: _300  and  _303
REMARK  127  A    between atoms: _303  and  _304
REMARK  128  A    between atoms: _306  and  _308
REMARK  129  A    between atoms: _308  and  _309
REMARK  130  A    between atoms: _308  and  _311
REMARK  131  A    between atoms: _311  and  _312
REMARK  132  A    between atoms: _315  and  _317
REMARK  133  A    between atoms: _317  and  _318
REMARK  134  A    between atoms: _317  and  _320
REMARK  135  A    between atoms: _320  and  _321
REMARK  136  A    between atoms: _324  and  _326
REMARK  137  A    between atoms: _326  and  _327
REMARK  138  A    between atoms: _326  and  _329
REMARK  139  A    between atoms: _329  and  _330
REMARK  140  A    between atoms: _332  and  _334
REMARK  141  A    between atoms: _334  and  _335
REMARK  142  A    between atoms: _334  and  _337
REMARK  143  A    between atoms: _340  and  _342
REMARK  144  A    between atoms: _342  and  _343
REMARK  145  A    between atoms: _342  and  _345
REMARK  146  A    between atoms: _345  and  _346
REMARK  147  A    between atoms: _349  and  _351
REMARK  148  A    between atoms: _351  and  _352
REMARK  149  A    between atoms: _351  and  _354
REMARK  150  A    between atoms: _354  and  _355
REMARK  151  A    between atoms: _360  and  _362
REMARK  152  A    between atoms: _362  and  _363
REMARK  153  A    between atoms: _362  and  _365
REMARK  154  A    between atoms: _365  and  _366
REMARK  155  A    between atoms: _369  and  _371
REMARK  156  A    between atoms: _371  and  _372
REMARK  157  A    between atoms: _371  and  _374
REMARK  158  A    between atoms: _374  and  _375
REMARK  159  A    between atoms: _381  and  _383
REMARK  160  A    between atoms: _383  and  _384
REMARK  161  A    between atoms: _383  and  _386
REMARK  162  A    between atoms: _386  and  _387
REMARK  163  A    between atoms: _387  and  _388
REMARK  164  A    between atoms: _388  and  _389
REMARK  165  A    between atoms: _398  and  _400
REMARK  166  A    between atoms: _400  and  _401
REMARK  167  A    between atoms: _400  and  _403
REMARK  168  A    between atoms: _406  and  _408
REMARK  169  A    between atoms: _408  and  _409
REMARK  170  A    between atoms: _408  and  _411
REMARK  171  A    between atoms: _411  and  _412
REMARK  172  A    between atoms: _414  and  _416
REMARK  173  A    between atoms: _416  and  _417
REMARK  174  A    between atoms: _416  and  _419
REMARK  175  A    between atoms: _419  and  _420
REMARK  176  A    between atoms: _426  and  _428
REMARK  177  A    between atoms: _428  and  _429
REMARK  178  A    between atoms: _432  and  _433
REMARK  179  A    between atoms: _438  and  _440
REMARK  180  A    between atoms: _440  and  _441
REMARK  181  A    between atoms: _440  and  _443
REMARK  182  A    between atoms: _443  and  _444
REMARK  183  A    between atoms: _450  and  _452
REMARK  184  A    between atoms: _452  and  _453
REMARK  185  A    between atoms: _452  and  _455
REMARK  186  A    between atoms: _455  and  _456
REMARK  187  A    between atoms: _462  and  _464
REMARK  188  A    between atoms: _464  and  _465
REMARK  189  A    between atoms: _464  and  _467
REMARK  190  A    between atoms: _467  and  _468
REMARK  191  A    between atoms: _468  and  _469
REMARK  192  A    between atoms: _469  and  _470
REMARK  193  A    between atoms: _479  and  _481
REMARK  194  A    between atoms: _481  and  _482
REMARK  195  A    between atoms: _484  and  _486
REMARK  196  A    between atoms: _486  and  _487
REMARK  197  A    between atoms: _486  and  _489
REMARK  198  A    between atoms: _489  and  _490
REMARK  199  A    between atoms: _493  and  _495
REMARK  200  A    between atoms: _495  and  _496
REMARK  201  A    between atoms: _498  and  _500
REMARK  202  A    between atoms: _500  and  _501
REMARK  203  A    between atoms: _500  and  _503
REMARK  204  A    between atoms: _503  and  _504
REMARK  205  A    between atoms: _504  and  _505
REMARK  206  A    between atoms: _507  and  _509
REMARK  207  A    between atoms: _509  and  _510
REMARK  208  A    between atoms: _513  and  _515
REMARK  209  A    between atoms: _515  and  _516
REMARK  210  A    between atoms: _515  and  _518
REMARK  211  A    between atoms: _518  and  _519
REMARK  212  A    between atoms: _521  and  _523
REMARK  213  A    between atoms: _523  and  _524
REMARK  214  A    between atoms: _523  and  _526
REMARK  215  A    between atoms: _526  and  _527
REMARK  216  A    between atoms: _530  and  _532
REMARK  217  A    between atoms: _532  and  _533
REMARK  218  A    between atoms: _532  and  _535
REMARK  219  A    between atoms: _535  and  _536
REMARK  220  A    between atoms: _541  and  _543
REMARK  221  A    between atoms: _543  and  _544
REMARK  222  A    between atoms: _543  and  _546
REMARK  223  A    between atoms: _546  and  _547
REMARK  224  A    between atoms: _552  and  _554
REMARK  225  A    between atoms: _554  and  _555
REMARK  226  A    between atoms: _554  and  _557
REMARK  227  A    between atoms: _560  and  _562
REMARK  228  A    between atoms: _562  and  _563
REMARK  229  A    between atoms: _562  and  _565
REMARK  230  A    between atoms: _565  and  _566
REMARK  231  A    between atoms: _571  and  _572
REMARK                            x       y       z     vdW  Elec       q    Type
REMARK                         _______ _______ _______ _____ _____    ______ ____
ROOT
ATOM      1  O   HOH     1      24.604   4.856   9.816  0.00  0.00    +0.000 OA
ENDROOT
TORSDOF 0
REMARK  Name = ../refined-set-2016/2i2c/2i2c_pocket.pdb
REMARK  231 active torsions:
REMARK  status: ('A' for Active; 'I' for Inactive)
REMARK    1  A    between atoms: _1  and  _3
REMARK    2  A    between atoms: _3  and  _4
REMARK    3  A    between atoms: _6  and  _8
REMARK    4  A    between atoms: _8  and  _9
REMARK    5  A    between atoms: _8  and  _11
REMARK    6  A    between atoms: _11  and  _12
REMARK    7  A    between atoms: _15  and  _17
REMARK    8  A    between atoms: _17  and  _18
REMARK    9  A    between atoms: _20  and  _22
REMARK   10  A    between atoms: _22  and  _23
REMARK   11  A    between atoms: _22  and  _25
REMARK   12  A    between atoms: _25  and  _26
REMARK   13  A    between atoms: _29  and  _31
REMARK   14  A    between atoms: _31  and  _32
REMARK   15  A    between atoms: _31  and  _34
REMARK   16  A    between atoms: _34  and  _35
REMARK   17  A    between atoms: _41  and  _43
REMARK   18  A    between atoms: _43  and  _44
REMARK   19  A    between atoms: _43  and  _46
REMARK   20  A    between atoms: _46  and  _47
REMARK   21  A    between atoms: _50  and  _52
REMARK   22  A    between atoms: _52  and  _53
REMARK   23  A    between atoms: _52  and  _55
REMARK   24  A    between atoms: _55  and  _56
REMARK   25  A    between atoms: _58  and  _60
REMARK   26  A    between atoms: _60  and  _61
REMARK   27  A    between atoms: _60  and  _63
REMARK   28  A    between atoms: _63  and  _64
REMARK   29  A    between atoms: _69  and  _71
REMARK   30  A    between atoms: _71  and  _72
REMARK   31  A    between atoms: _71  and  _74
REMARK   32  A    between atoms: _74  and  _75
REMARK   33  A    between atoms: _80  and  _82
REMARK   34  A    between atoms: _82  and  _83
REMARK   35  A    between atoms: _82  and  _85
REMARK   36  A    between atoms: _85  and  _86
REMARK   37  A    between atoms: _89  and  _91
REMARK   38  A    between atoms: _91  and  _92
REMARK   39  A    between atoms: _94  and  _96
REMARK   40  A    between atoms: _96  and  _97
REMARK   41  A    between atoms: _96  and  _99
REMARK   42  A    between atoms: _99  and  _100
REMARK   43  A    between atoms: _106  and  _108
REMARK   44  A    between atoms: _108  and  _109
REMARK   45  A    between atoms: _108  and  _111
REMARK   46  A    between atoms: _111  and  _112
REMARK   47  A    between atoms: _117  and  _118
REMARK   48  A    between atoms: _120  and  _122
REMARK   49  A    between atoms: _122  and  _123
REMARK   50  A    between atoms: _126  and  _128
REMARK   51  A    between atoms: _128  and  _129
REMARK   52  A    between atoms: _132  and  _134
REMARK   53  A    between atoms: _134  and  _135
REMARK   54  A    between atoms: _134  and  _137
REMARK   55  A    between atoms: _137  and  _138
REMARK   56  A    between atoms: _141  and  _143
REMARK   57  A    between atoms: _143  and  _144
REMARK   58  A    between atoms: _143  and  _146
REMARK   59  A    between atoms: _146  and  _147
REMARK   60  A    between atoms: _152  and  _154
REMARK   61  A    between atoms: _154  and  _155
REMARK   62  A    between atoms: _154  and  _157
REMARK   63  A    between atoms: _157  and  _158
REMARK   64  A    between atoms: _158  and  _159
REMARK   65  A    between atoms: _162  and  _164
REMARK   66  A    between atoms: _164  and  _165
REMARK   67  A    between atoms: _164  and  _167
REMARK   68  A    between atoms: _167  and  _168
REMARK   69  A    between atoms: _170  and  _172
REMARK   70  A    between atoms: _172  and  _173
REMARK   71  A    between atoms: _172  and  _175
REMARK   72  A    between atoms: _175  and  _176
REMARK   73  A    between atoms: _179  and  _181
REMARK   74  A    between atoms: _181  and  _182
REMARK   75  A    between atoms: _181  and  _184
REMARK   76  A    between atoms: _184  and  _185
REMARK   77  A    between atoms: _185  and  _186
REMARK   78  A    between atoms: _186  and  _187
REMARK   79  A    between atoms: _187  and  _188
REMARK   80  A    between atoms: _192  and  _194
REMARK   81  A    between atoms: _194  and  _195
REMARK   82  A    between atoms: _194  and  _197
REMARK   83  A    between atoms: _199  and  _201
REMARK   84  A    between atoms: _201  and  _202
REMARK   85  A    between atoms: _201  and  _204
REMARK   86  A    between atoms: _204  and  _205
REMARK   87  A    between atoms: _207  and  _209
REMARK   88  A    between atoms: _209  and  _210
REMARK   89  A    between atoms: _209  and  _212
REMARK   90  A    between atoms: _212  and  _213
REMARK   91  A    between atoms: _217  and  _218
REMARK   92  A    between atoms: _223  and  _225
REMARK   93  A    between atoms: _225  and  _226
REMARK   94  A    between atoms: _225  and  _228
REMARK   95  A    between atoms: _228  and  _229
REMARK   96  A    between atoms: _231  and  _233
REMARK   97  A    between atoms: _233  and  _234
REMARK   98  A    between atoms: _236  and  _238
REMARK   99  A    between atoms: _238  and  _239
REMARK  100  A    between atoms: _238  and  _241
REMARK  101  A    between atoms: _241  and  _242
REMARK  102  A    between atoms: _245  and  _247
REMARK  103  A    between atoms: _247  and  _248
REMARK  104  A    between atoms: _247  and  _250
REMARK  105  A    between atoms: _250  and  _251
REMARK  106  A    between atoms: _254  and  _256
REMARK  107  A    between atoms: _256  and  _257
REMARK  108  A    between atoms: _260  and  _262
REMARK  109  A    between atoms: _262  and  _263
REMARK  110  A    between atoms: _262  and  _265
REMARK  111  A    between atoms: _265  and  _266
REMARK  112  A    between atoms: _271  and  _272
REMARK  113  A    between atoms: _274  and  _276
REMARK  114  A    between atoms: _276  and  _277
REMARK  115  A    between atoms: _276  and  _279
REMARK  116  A    between atoms: _279  and  _280
REMARK  117  A    between atoms: _285  and  _287
REMARK  118  A    between atoms: _287  and  _288
REMARK  119  A    between atoms: _287  and  _290
REMARK  120  A    between atoms: _290  and  _291
REMARK  121  A    between atoms: _291  and  _292
REMARK  122  A    between atoms: _292  and  _293
REMARK  123  A    between atoms: _293  and  _294
REMARK  124  A    between atoms: _298  and  _300
REMARK  125  A    between atoms: _300  and  _301
REMARK  126  A    between atoms: _300  and  _303
REMARK  127  A    between atoms: _303  and  _304
REMARK  128  A    between atoms: _306  and  _308
REMARK  129  A    between atoms: _308  and  _309
REMARK  130  A    between atoms: _308  and  _311
REMARK  131  A    between atoms: _311  and  _312
REMARK  132  A    between atoms: _315  and  _317
REMARK  133  A    between atoms: _317  and  _318
REMARK  134  A    between atoms: _317  and  _320
REMARK  135  A    between atoms: _320  and  _321
REMARK  136  A    between atoms: _324  and  _326
REMARK  137  A    between atoms: _326  and  _327
REMARK  138  A    between atoms: _326  and  _329
REMARK  139  A    between atoms: _329  and  _330
REMARK  140  A    between atoms: _332  and  _334
REMARK  141  A    between atoms: _334  and  _335
REMARK  142  A    between atoms: _334  and  _337
REMARK  143  A    between atoms: _340  and  _342
REMARK  144  A    between atoms: _342  and  _343
REMARK  145  A    between atoms: _342  and  _345
REMARK  146  A    between atoms: _345  and  _346
REMARK  147  A    between atoms: _349  and  _351
REMARK  148  A    between atoms: _351  and  _352
REMARK  149  A    between atoms: _351  and  _354
REMARK  150  A    between atoms: _354  and  _355
REMARK  151  A    between atoms: _360  and  _362
REMARK  152  A    between atoms: _362  and  _363
REMARK  153  A    between atoms: _362  and  _365
REMARK  154  A    between atoms: _365  and  _366
REMARK  155  A    between atoms: _369  and  _371
REMARK  156  A    between atoms: _371  and  _372
REMARK  157  A    between atoms: _371  and  _374
REMARK  158  A    between atoms: _374  and  _375
REMARK  159  A    between atoms: _381  and  _383
REMARK  160  A    between atoms: _383  and  _384
REMARK  161  A    between atoms: _383  and  _386
REMARK  162  A    between atoms: _386  and  _387
REMARK  163  A    between atoms: _387  and  _388
REMARK  164  A    between atoms: _388  and  _389
REMARK  165  A    between atoms: _398  and  _400
REMARK  166  A    between atoms: _400  and  _401
REMARK  167  A    between atoms: _400  and  _403
REMARK  168  A    between atoms: _406  and  _408
REMARK  169  A    between atoms: _408  and  _409
REMARK  170  A    between atoms: _408  and  _411
REMARK  171  A    between atoms: _411  and  _412
REMARK  172  A    between atoms: _414  and  _416
REMARK  173  A    between atoms: _416  and  _417
REMARK  174  A    between atoms: _416  and  _419
REMARK  175  A    between atoms: _419  and  _420
REMARK  176  A    between atoms: _426  and  _428
REMARK  177  A    between atoms: _428  and  _429
REMARK  178  A    between atoms: _432  and  _433
REMARK  179  A    between atoms: _438  and  _440
REMARK  180  A    between atoms: _440  and  _441
REMARK  181  A    between atoms: _440  and  _443
REMARK  182  A    between atoms: _443  and  _444
REMARK  183  A    between atoms: _450  and  _452
REMARK  184  A    between atoms: _452  and  _453
REMARK  185  A    between atoms: _452  and  _455
REMARK  186  A    between atoms: _455  and  _456
REMARK  187  A    between atoms: _462  and  _464
REMARK  188  A    between atoms: _464  and  _465
REMARK  189  A    between atoms: _464  and  _467
REMARK  190  A    between atoms: _467  and  _468
REMARK  191  A    between atoms: _468  and  _469
REMARK  192  A    between atoms: _469  and  _470
REMARK  193  A    between atoms: _479  and  _481
REMARK  194  A    between atoms: _481  and  _482
REMARK  195  A    between atoms: _484  and  _486
REMARK  196  A    between atoms: _486  and  _487
REMARK  197  A    between atoms: _486  and  _489
REMARK  198  A    between atoms: _489  and  _490
REMARK  199  A    between atoms: _493  and  _495
REMARK  200  A    between atoms: _495  and  _496
REMARK  201  A    between atoms: _498  and  _500
REMARK  202  A    between atoms: _500  and  _501
REMARK  203  A    between atoms: _500  and  _503
REMARK  204  A    between atoms: _503  and  _504
REMARK  205  A    between atoms: _504  and  _505
REMARK  206  A    between atoms: _507  and  _509
REMARK  207  A    between atoms: _509  and  _510
REMARK  208  A    between atoms: _513  and  _515
REMARK  209  A    between atoms: _515  and  _516
REMARK  210  A    between atoms: _515  and  _518
REMARK  211  A    between atoms: _518  and  _519
REMARK  212  A    between atoms: _521  and  _523
REMARK  213  A    between atoms: _523  and  _524
REMARK  214  A    between atoms: _523  and  _526
REMARK  215  A    between atoms: _526  and  _527
REMARK  216  A    between atoms: _530  and  _532
REMARK  217  A    between atoms: _532  and  _533
REMARK  218  A    between atoms: _532  and  _535
REMARK  219  A    between atoms: _535  and  _536
REMARK  220  A    between atoms: _541  and  _543
REMARK  221  A    between atoms: _543  and  _544
REMARK  222  A    between atoms: _543  and  _546
REMARK  223  A    between atoms: _546  and  _547
REMARK  224  A    between atoms: _552  and  _554
REMARK  225  A    between atoms: _554  and  _555
REMARK  226  A    between atoms: _554  and  _557
REMARK  227  A    between atoms: _560  and  _562
REMARK  228  A    between atoms: _562  and  _563
REMARK  229  A    between atoms: _562  and  _565
REMARK  230  A    between atoms: _565  and  _566
REMARK  231  A    between atoms: _571  and  _572
REMARK                            x       y       z     vdW  Elec       q    Type
REMARK                         _______ _______ _______ _____ _____    ______ ____
ROOT
ATOM      1  O   HOH     1      12.585   1.058   6.729  0.00  0.00    +0.000 OA
ENDROOT
TORSDOF 0
REMARK  Name = ../refined-set-2016/2i2c/2i2c_pocket.pdb
REMARK  231 active torsions:
REMARK  status: ('A' for Active; 'I' for Inactive)
REMARK    1  A    between atoms: _1  and  _3
REMARK    2  A    between atoms: _3  and  _4
REMARK    3  A    between atoms: _6  and  _8
REMARK    4  A    between atoms: _8  and  _9
REMARK    5  A    between atoms: _8  and  _11
REMARK    6  A    between atoms: _11  and  _12
REMARK    7  A    between atoms: _15  and  _17
REMARK    8  A    between atoms: _17  and  _18
REMARK    9  A    between atoms: _20  and  _22
REMARK   10  A    between atoms: _22  and  _23
REMARK   11  A    between atoms: _22  and  _25
REMARK   12  A    between atoms: _25  and  _26
REMARK   13  A    between atoms: _29  and  _31
REMARK   14  A    between atoms: _31  and  _32
REMARK   15  A    between atoms: _31  and  _34
REMARK   16  A    between atoms: _34  and  _35
REMARK   17  A    between atoms: _41  and  _43
REMARK   18  A    between atoms: _43  and  _44
REMARK   19  A    between atoms: _43  and  _46
REMARK   20  A    between atoms: _46  and  _47
REMARK   21  A    between atoms: _50  and  _52
REMARK   22  A    between atoms: _52  and  _53
REMARK   23  A    between atoms: _52  and  _55
REMARK   24  A    between atoms: _55  and  _56
REMARK   25  A    between atoms: _58  and  _60
REMARK   26  A    between atoms: _60  and  _61
REMARK   27  A    between atoms: _60  and  _63
REMARK   28  A    between atoms: _63  and  _64
REMARK   29  A    between atoms: _69  and  _71
REMARK   30  A    between atoms: _71  and  _72
REMARK   31  A    between atoms: _71  and  _74
REMARK   32  A    between atoms: _74  and  _75
REMARK   33  A    between atoms: _80  and  _82
REMARK   34  A    between atoms: _82  and  _83
REMARK   35  A    between atoms: _82  and  _85
REMARK   36  A    between atoms: _85  and  _86
REMARK   37  A    between atoms: _89  and  _91
REMARK   38  A    between atoms: _91  and  _92
REMARK   39  A    between atoms: _94  and  _96
REMARK   40  A    between atoms: _96  and  _97
REMARK   41  A    between atoms: _96  and  _99
REMARK   42  A    between atoms: _99  and  _100
REMARK   43  A    between atoms: _106  and  _108
REMARK   44  A    between atoms: _108  and  _109
REMARK   45  A    between atoms: _108  and  _111
REMARK   46  A    between atoms: _111  and  _112
REMARK   47  A    between atoms: _117  and  _118
REMARK   48  A    between atoms: _120  and  _122
REMARK   49  A    between atoms: _122  and  _123
REMARK   50  A    between atoms: _126  and  _128
REMARK   51  A    between atoms: _128  and  _129
REMARK   52  A    between atoms: _132  and  _134
REMARK   53  A    between atoms: _134  and  _135
REMARK   54  A    between atoms: _134  and  _137
REMARK   55  A    between atoms: _137  and  _138
REMARK   56  A    between atoms: _141  and  _143
REMARK   57  A    between atoms: _143  and  _144
REMARK   58  A    between atoms: _143  and  _146
REMARK   59  A    between atoms: _146  and  _147
REMARK   60  A    between atoms: _152  and  _154
REMARK   61  A    between atoms: _154  and  _155
REMARK   62  A    between atoms: _154  and  _157
REMARK   63  A    between atoms: _157  and  _158
REMARK   64  A    between atoms: _158  and  _159
REMARK   65  A    between atoms: _162  and  _164
REMARK   66  A    between atoms: _164  and  _165
REMARK   67  A    between atoms: _164  and  _167
REMARK   68  A    between atoms: _167  and  _168
REMARK   69  A    between atoms: _170  and  _172
REMARK   70  A    between atoms: _172  and  _173
REMARK   71  A    between atoms: _172  and  _175
REMARK   72  A    between atoms: _175  and  _176
REMARK   73  A    between atoms: _179  and  _181
REMARK   74  A    between atoms: _181  and  _182
REMARK   75  A    between atoms: _181  and  _184
REMARK   76  A    between atoms: _184  and  _185
REMARK   77  A    between atoms: _185  and  _186
REMARK   78  A    between atoms: _186  and  _187
REMARK   79  A    between atoms: _187  and  _188
REMARK   80  A    between atoms: _192  and  _194
REMARK   81  A    between atoms: _194  and  _195
REMARK   82  A    between atoms: _194  and  _197
REMARK   83  A    between atoms: _199  and  _201
REMARK   84  A    between atoms: _201  and  _202
REMARK   85  A    between atoms: _201  and  _204
REMARK   86  A    between atoms: _204  and  _205
REMARK   87  A    between atoms: _207  and  _209
REMARK   88  A    between atoms: _209  and  _210
REMARK   89  A    between atoms: _209  and  _212
REMARK   90  A    between atoms: _212  and  _213
REMARK   91  A    between atoms: _217  and  _218
REMARK   92  A    between atoms: _223  and  _225
REMARK   93  A    between atoms: _225  and  _226
REMARK   94  A    between atoms: _225  and  _228
REMARK   95  A    between atoms: _228  and  _229
REMARK   96  A    between atoms: _231  and  _233
REMARK   97  A    between atoms: _233  and  _234
REMARK   98  A    between atoms: _236  and  _238
REMARK   99  A    between atoms: _238  and  _239
REMARK  100  A    between atoms: _238  and  _241
REMARK  101  A    between atoms: _241  and  _242
REMARK  102  A    between atoms: _245  and  _247
REMARK  103  A    between atoms: _247  and  _248
REMARK  104  A    between atoms: _247  and  _250
REMARK  105  A    between atoms: _250  and  _251
REMARK  106  A    between atoms: _254  and  _256
REMARK  107  A    between atoms: _256  and  _257
REMARK  108  A    between atoms: _260  and  _262
REMARK  109  A    between atoms: _262  and  _263
REMARK  110  A    between atoms: _262  and  _265
REMARK  111  A    between atoms: _265  and  _266
REMARK  112  A    between atoms: _271  and  _272
REMARK  113  A    between atoms: _274  and  _276
REMARK  114  A    between atoms: _276  and  _277
REMARK  115  A    between atoms: _276  and  _279
REMARK  116  A    between atoms: _279  and  _280
REMARK  117  A    between atoms: _285  and  _287
REMARK  118  A    between atoms: _287  and  _288
REMARK  119  A    between atoms: _287  and  _290
REMARK  120  A    between atoms: _290  and  _291
REMARK  121  A    between atoms: _291  and  _292
REMARK  122  A    between atoms: _292  and  _293
REMARK  123  A    between atoms: _293  and  _294
REMARK  124  A    between atoms: _298  and  _300
REMARK  125  A    between atoms: _300  and  _301
REMARK  126  A    between atoms: _300  and  _303
REMARK  127  A    between atoms: _303  and  _304
REMARK  128  A    between atoms: _306  and  _308
REMARK  129  A    between atoms: _308  and  _309
REMARK  130  A    between atoms: _308  and  _311
REMARK  131  A    between atoms: _311  and  _312
REMARK  132  A    between atoms: _315  and  _317
REMARK  133  A    between atoms: _317  and  _318
REMARK  134  A    between atoms: _317  and  _320
REMARK  135  A    between atoms: _320  and  _321
REMARK  136  A    between atoms: _324  and  _326
REMARK  137  A    between atoms: _326  and  _327
REMARK  138  A    between atoms: _326  and  _329
REMARK  139  A    between atoms: _329  and  _330
REMARK  140  A    between atoms: _332  and  _334
REMARK  141  A    between atoms: _334  and  _335
REMARK  142  A    between atoms: _334  and  _337
REMARK  143  A    between atoms: _340  and  _342
REMARK  144  A    between atoms: _342  and  _343
REMARK  145  A    between atoms: _342  and  _345
REMARK  146  A    between atoms: _345  and  _346
REMARK  147  A    between atoms: _349  and  _351
REMARK  148  A    between atoms: _351  and  _352
REMARK  149  A    between atoms: _351  and  _354
REMARK  150  A    between atoms: _354  and  _355
REMARK  151  A    between atoms: _360  and  _362
REMARK  152  A    between atoms: _362  and  _363
REMARK  153  A    between atoms: _362  and  _365
REMARK  154  A    between atoms: _365  and  _366
REMARK  155  A    between atoms: _369  and  _371
REMARK  156  A    between atoms: _371  and  _372
REMARK  157  A    between atoms: _371  and  _374
REMARK  158  A    between atoms: _374  and  _375
REMARK  159  A    between atoms: _381  and  _383
REMARK  160  A    between atoms: _383  and  _384
REMARK  161  A    between atoms: _383  and  _386
REMARK  162  A    between atoms: _386  and  _387
REMARK  163  A    between atoms: _387  and  _388
REMARK  164  A    between atoms: _388  and  _389
REMARK  165  A    between atoms: _398  and  _400
REMARK  166  A    between atoms: _400  and  _401
REMARK  167  A    between atoms: _400  and  _403
REMARK  168  A    between atoms: _406  and  _408
REMARK  169  A    between atoms: _408  and  _409
REMARK  170  A    between atoms: _408  and  _411
REMARK  171  A    between atoms: _411  and  _412
REMARK  172  A    between atoms: _414  and  _416
REMARK  173  A    between atoms: _416  and  _417
REMARK  174  A    between atoms: _416  and  _419
REMARK  175  A    between atoms: _419  and  _420
REMARK  176  A    between atoms: _426  and  _428
REMARK  177  A    between atoms: _428  and  _429
REMARK  178  A    between atoms: _432  and  _433
REMARK  179  A    between atoms: _438  and  _440
REMARK  180  A    between atoms: _440  and  _441
REMARK  181  A    between atoms: _440  and  _443
REMARK  182  A    between atoms: _443  and  _444
REMARK  183  A    between atoms: _450  and  _452
REMARK  184  A    between atoms: _452  and  _453
REMARK  185  A    between atoms: _452  and  _455
REMARK  186  A    between atoms: _455  and  _456
REMARK  187  A    between atoms: _462  and  _464
REMARK  188  A    between atoms: _464  and  _465
REMARK  189  A    between atoms: _464  and  _467
REMARK  190  A    between atoms: _467  and  _468
REMARK  191  A    between atoms: _468  and  _469
REMARK  192  A    between atoms: _469  and  _470
REMARK  193  A    between atoms: _479  and  _481
REMARK  194  A    between atoms: _481  and  _482
REMARK  195  A    between atoms: _484  and  _486
REMARK  196  A    between atoms: _486  and  _487
REMARK  197  A    between atoms: _486  and  _489
REMARK  198  A    between atoms: _489  and  _490
REMARK  199  A    between atoms: _493  and  _495
REMARK  200  A    between atoms: _495  and  _496
REMARK  201  A    between atoms: _498  and  _500
REMARK  202  A    between atoms: _500  and  _501
REMARK  203  A    between atoms: _500  and  _503
REMARK  204  A    between atoms: _503  and  _504
REMARK  205  A    between atoms: _504  and  _505
REMARK  206  A    between atoms: _507  and  _509
REMARK  207  A    between atoms: _509  and  _510
REMARK  208  A    between atoms: _513  and  _515
REMARK  209  A    between atoms: _515  and  _516
REMARK  210  A    between atoms: _515  and  _518
REMARK  211  A    between atoms: _518  and  _519
REMARK  212  A    between atoms: _521  and  _523
REMARK  213  A    between atoms: _523  and  _524
REMARK  214  A    between atoms: _523  and  _526
REMARK  215  A    between atoms: _526  and  _527
REMARK  216  A    between atoms: _530  and  _532
REMARK  217  A    between atoms: _532  and  _533
REMARK  218  A    between atoms: _532  and  _535
REMARK  219  A    between atoms: _535  and  _536
REMARK  220  A    between atoms: _541  and  _543
REMARK  221  A    between atoms: _543  and  _544
REMARK  222  A    between atoms: _543  and  _546
REMARK  223  A    between atoms: _546  and  _547
REMARK  224  A    between atoms: _552  and  _554
REMARK  225  A    between atoms: _554  and  _555
REMARK  226  A    between atoms: _554  and  _557
REMARK  227  A    between atoms: _560  and  _562
REMARK  228  A    between atoms: _562  and  _563
REMARK  229  A    between atoms: _562  and  _565
REMARK  230  A    between atoms: _565  and  _566
REMARK  231  A    between atoms: _571  and  _572
REMARK                            x       y       z     vdW  Elec       q    Type
REMARK                         _______ _______ _______ _____ _____    ______ ____
ROOT
ATOM      1  O   HOH     1      14.489   1.486   8.946  0.00  0.00    +0.000 OA
ENDROOT
TORSDOF 0
REMARK  Name = ../refined-set-2016/2i2c/2i2c_pocket.pdb
REMARK  231 active torsions:
REMARK  status: ('A' for Active; 'I' for Inactive)
REMARK    1  A    between atoms: _1  and  _3
REMARK    2  A    between atoms: _3  and  _4
REMARK    3  A    between atoms: _6  and  _8
REMARK    4  A    between atoms: _8  and  _9
REMARK    5  A    between atoms: _8  and  _11
REMARK    6  A    between atoms: _11  and  _12
REMARK    7  A    between atoms: _15  and  _17
REMARK    8  A    between atoms: _17  and  _18
REMARK    9  A    between atoms: _20  and  _22
REMARK   10  A    between atoms: _22  and  _23
REMARK   11  A    between atoms: _22  and  _25
REMARK   12  A    between atoms: _25  and  _26
REMARK   13  A    between atoms: _29  and  _31
REMARK   14  A    between atoms: _31  and  _32
REMARK   15  A    between atoms: _31  and  _34
REMARK   16  A    between atoms: _34  and  _35
REMARK   17  A    between atoms: _41  and  _43
REMARK   18  A    between atoms: _43  and  _44
REMARK   19  A    between atoms: _43  and  _46
REMARK   20  A    between atoms: _46  and  _47
REMARK   21  A    between atoms: _50  and  _52
REMARK   22  A    between atoms: _52  and  _53
REMARK   23  A    between atoms: _52  and  _55
REMARK   24  A    between atoms: _55  and  _56
REMARK   25  A    between atoms: _58  and  _60
REMARK   26  A    between atoms: _60  and  _61
REMARK   27  A    between atoms: _60  and  _63
REMARK   28  A    between atoms: _63  and  _64
REMARK   29  A    between atoms: _69  and  _71
REMARK   30  A    between atoms: _71  and  _72
REMARK   31  A    between atoms: _71  and  _74
REMARK   32  A    between atoms: _74  and  _75
REMARK   33  A    between atoms: _80  and  _82
REMARK   34  A    between atoms: _82  and  _83
REMARK   35  A    between atoms: _82  and  _85
REMARK   36  A    between atoms: _85  and  _86
REMARK   37  A    between atoms: _89  and  _91
REMARK   38  A    between atoms: _91  and  _92
REMARK   39  A    between atoms: _94  and  _96
REMARK   40  A    between atoms: _96  and  _97
REMARK   41  A    between atoms: _96  and  _99
REMARK   42  A    between atoms: _99  and  _100
REMARK   43  A    between atoms: _106  and  _108
REMARK   44  A    between atoms: _108  and  _109
REMARK   45  A    between atoms: _108  and  _111
REMARK   46  A    between atoms: _111  and  _112
REMARK   47  A    between atoms: _117  and  _118
REMARK   48  A    between atoms: _120  and  _122
REMARK   49  A    between atoms: _122  and  _123
REMARK   50  A    between atoms: _126  and  _128
REMARK   51  A    between atoms: _128  and  _129
REMARK   52  A    between atoms: _132  and  _134
REMARK   53  A    between atoms: _134  and  _135
REMARK   54  A    between atoms: _134  and  _137
REMARK   55  A    between atoms: _137  and  _138
REMARK   56  A    between atoms: _141  and  _143
REMARK   57  A    between atoms: _143  and  _144
REMARK   58  A    between atoms: _143  and  _146
REMARK   59  A    between atoms: _146  and  _147
REMARK   60  A    between atoms: _152  and  _154
REMARK   61  A    between atoms: _154  and  _155
REMARK   62  A    between atoms: _154  and  _157
REMARK   63  A    between atoms: _157  and  _158
REMARK   64  A    between atoms: _158  and  _159
REMARK   65  A    between atoms: _162  and  _164
REMARK   66  A    between atoms: _164  and  _165
REMARK   67  A    between atoms: _164  and  _167
REMARK   68  A    between atoms: _167  and  _168
REMARK   69  A    between atoms: _170  and  _172
REMARK   70  A    between atoms: _172  and  _173
REMARK   71  A    between atoms: _172  and  _175
REMARK   72  A    between atoms: _175  and  _176
REMARK   73  A    between atoms: _179  and  _181
REMARK   74  A    between atoms: _181  and  _182
REMARK   75  A    between atoms: _181  and  _184
REMARK   76  A    between atoms: _184  and  _185
REMARK   77  A    between atoms: _185  and  _186
REMARK   78  A    between atoms: _186  and  _187
REMARK   79  A    between atoms: _187  and  _188
REMARK   80  A    between atoms: _192  and  _194
REMARK   81  A    between atoms: _194  and  _195
REMARK   82  A    between atoms: _194  and  _197
REMARK   83  A    between atoms: _199  and  _201
REMARK   84  A    between atoms: _201  and  _202
REMARK   85  A    between atoms: _201  and  _204
REMARK   86  A    between atoms: _204  and  _205
REMARK   87  A    between atoms: _207  and  _209
REMARK   88  A    between atoms: _209  and  _210
REMARK   89  A    between atoms: _209  and  _212
REMARK   90  A    between atoms: _212  and  _213
REMARK   91  A    between atoms: _217  and  _218
REMARK   92  A    between atoms: _223  and  _225
REMARK   93  A    between atoms: _225  and  _226
REMARK   94  A    between atoms: _225  and  _228
REMARK   95  A    between atoms: _228  and  _229
REMARK   96  A    between atoms: _231  and  _233
REMARK   97  A    between atoms: _233  and  _234
REMARK   98  A    between atoms: _236  and  _238
REMARK   99  A    between atoms: _238  and  _239
REMARK  100  A    between atoms: _238  and  _241
REMARK  101  A    between atoms: _241  and  _242
REMARK  102  A    between atoms: _245  and  _247
REMARK  103  A    between atoms: _247  and  _248
REMARK  104  A    between atoms: _247  and  _250
REMARK  105  A    between atoms: _250  and  _251
REMARK  106  A    between atoms: _254  and  _256
REMARK  107  A    between atoms: _256  and  _257
REMARK  108  A    between atoms: _260  and  _262
REMARK  109  A    between atoms: _262  and  _263
REMARK  110  A    between atoms: _262  and  _265
REMARK  111  A    between atoms: _265  and  _266
REMARK  112  A    between atoms: _271  and  _272
REMARK  113  A    between atoms: _274  and  _276
REMARK  114  A    between atoms: _276  and  _277
REMARK  115  A    between atoms: _276  and  _279
REMARK  116  A    between atoms: _279  and  _280
REMARK  117  A    between atoms: _285  and  _287
REMARK  118  A    between atoms: _287  and  _288
REMARK  119  A    between atoms: _287  and  _290
REMARK  120  A    between atoms: _290  and  _291
REMARK  121  A    between atoms: _291  and  _292
REMARK  122  A    between atoms: _292  and  _293
REMARK  123  A    between atoms: _293  and  _294
REMARK  124  A    between atoms: _298  and  _300
REMARK  125  A    between atoms: _300  and  _301
REMARK  126  A    between atoms: _300  and  _303
REMARK  127  A    between atoms: _303  and  _304
REMARK  128  A    between atoms: _306  and  _308
REMARK  129  A    between atoms: _308  and  _309
REMARK  130  A    between atoms: _308  and  _311
REMARK  131  A    between atoms: _311  and  _312
REMARK  132  A    between atoms: _315  and  _317
REMARK  133  A    between atoms: _317  and  _318
REMARK  134  A    between atoms: _317  and  _320
REMARK  135  A    between atoms: _320  and  _321
REMARK  136  A    between atoms: _324  and  _326
REMARK  137  A    between atoms: _326  and  _327
REMARK  138  A    between atoms: _326  and  _329
REMARK  139  A    between atoms: _329  and  _330
REMARK  140  A    between atoms: _332  and  _334
REMARK  141  A    between atoms: _334  and  _335
REMARK  142  A    between atoms: _334  and  _337
REMARK  143  A    between atoms: _340  and  _342
REMARK  144  A    between atoms: _342  and  _343
REMARK  145  A    between atoms: _342  and  _345
REMARK  146  A    between atoms: _345  and  _346
REMARK  147  A    between atoms: _349  and  _351
REMARK  148  A    between atoms: _351  and  _352
REMARK  149  A    between atoms: _351  and  _354
REMARK  150  A    between atoms: _354  and  _355
REMARK  151  A    between atoms: _360  and  _362
REMARK  152  A    between atoms: _362  and  _363
REMARK  153  A    between atoms: _362  and  _365
REMARK  154  A    between atoms: _365  and  _366
REMARK  155  A    between atoms: _369  and  _371
REMARK  156  A    between atoms: _371  and  _372
REMARK  157  A    between atoms: _371  and  _374
REMARK  158  A    between atoms: _374  and  _375
REMARK  159  A    between atoms: _381  and  _383
REMARK  160  A    between atoms: _383  and  _384
REMARK  161  A    between atoms: _383  and  _386
REMARK  162  A    between atoms: _386  and  _387
REMARK  163  A    between atoms: _387  and  _388
REMARK  164  A    between atoms: _388  and  _389
REMARK  165  A    between atoms: _398  and  _400
REMARK  166  A    between atoms: _400  and  _401
REMARK  167  A    between atoms: _400  and  _403
REMARK  168  A    between atoms: _406  and  _408
REMARK  169  A    between atoms: _408  and  _409
REMARK  170  A    between atoms: _408  and  _411
REMARK  171  A    between atoms: _411  and  _412
REMARK  172  A    between atoms: _414  and  _416
REMARK  173  A    between atoms: _416  and  _417
REMARK  174  A    between atoms: _416  and  _419
REMARK  175  A    between atoms: _419  and  _420
REMARK  176  A    between atoms: _426  and  _428
REMARK  177  A    between atoms: _428  and  _429
REMARK  178  A    between atoms: _432  and  _433
REMARK  179  A    between atoms: _438  and  _440
REMARK  180  A    between atoms: _440  and  _441
REMARK  181  A    between atoms: _440  and  _443
REMARK  182  A    between atoms: _443  and  _444
REMARK  183  A    between atoms: _450  and  _452
REMARK  184  A    between atoms: _452  and  _453
REMARK  185  A    between atoms: _452  and  _455
REMARK  186  A    between atoms: _455  and  _456
REMARK  187  A    between atoms: _462  and  _464
REMARK  188  A    between atoms: _464  and  _465
REMARK  189  A    between atoms: _464  and  _467
REMARK  190  A    between atoms: _467  and  _468
REMARK  191  A    between atoms: _468  and  _469
REMARK  192  A    between atoms: _469  and  _470
REMARK  193  A    between atoms: _479  and  _481
REMARK  194  A    between atoms: _481  and  _482
REMARK  195  A    between atoms: _484  and  _486
REMARK  196  A    between atoms: _486  and  _487
REMARK  197  A    between atoms: _486  and  _489
REMARK  198  A    between atoms: _489  and  _490
REMARK  199  A    between atoms: _493  and  _495
REMARK  200  A    between atoms: _495  and  _496
REMARK  201  A    between atoms: _498  and  _500
REMARK  202  A    between atoms: _500  and  _501
REMARK  203  A    between atoms: _500  and  _503
REMARK  204  A    between atoms: _503  and  _504
REMARK  205  A    between atoms: _504  and  _505
REMARK  206  A    between atoms: _507  and  _509
REMARK  207  A    between atoms: _509  and  _510
REMARK  208  A    between atoms: _513  and  _515
REMARK  209  A    between atoms: _515  and  _516
REMARK  210  A    between atoms: _515  and  _518
REMARK  211  A    between atoms: _518  and  _519
REMARK  212  A    between atoms: _521  and  _523
REMARK  213  A    between atoms: _523  and  _524
REMARK  214  A    between atoms: _523  and  _526
REMARK  215  A    between atoms: _526  and  _527
REMARK  216  A    between atoms: _530  and  _532
REMARK  217  A    between atoms: _532  and  _533
REMARK  218  A    between atoms: _532  and  _535
REMARK  219  A    between atoms: _535  and  _536
REMARK  220  A    between atoms: _541  and  _543
REMARK  221  A    between atoms: _543  and  _544
REMARK  222  A    between atoms: _543  and  _546
REMARK  223  A    between atoms: _546  and  _547
REMARK  224  A    between atoms: _552  and  _554
REMARK  225  A    between atoms: _554  and  _555
REMARK  226  A    between atoms: _554  and  _557
REMARK  227  A    between atoms: _560  and  _562
REMARK  228  A    between atoms: _562  and  _563
REMARK  229  A    between atoms: _562  and  _565
REMARK  230  A    between atoms: _565  and  _566
REMARK  231  A    between atoms: _571  and  _572
REMARK                            x       y       z     vdW  Elec       q    Type
REMARK                         _______ _______ _______ _____ _____    ______ ____
ROOT
ATOM      1  O   HOH     1      26.677   1.873   8.591  0.00  0.00    +0.000 OA
ENDROOT
TORSDOF 0
REMARK  Name = ../refined-set-2016/2i2c/2i2c_pocket.pdb
REMARK  231 active torsions:
REMARK  status: ('A' for Active; 'I' for Inactive)
REMARK    1  A    between atoms: _1  and  _3
REMARK    2  A    between atoms: _3  and  _4
REMARK    3  A    between atoms: _6  and  _8
REMARK    4  A    between atoms: _8  and  _9
REMARK    5  A    between atoms: _8  and  _11
REMARK    6  A    between atoms: _11  and  _12
REMARK    7  A    between atoms: _15  and  _17
REMARK    8  A    between atoms: _17  and  _18
REMARK    9  A    between atoms: _20  and  _22
REMARK   10  A    between atoms: _22  and  _23
REMARK   11  A    between atoms: _22  and  _25
REMARK   12  A    between atoms: _25  and  _26
REMARK   13  A    between atoms: _29  and  _31
REMARK   14  A    between atoms: _31  and  _32
REMARK   15  A    between atoms: _31  and  _34
REMARK   16  A    between atoms: _34  and  _35
REMARK   17  A    between atoms: _41  and  _43
REMARK   18  A    between atoms: _43  and  _44
REMARK   19  A    between atoms: _43  and  _46
REMARK   20  A    between atoms: _46  and  _47
REMARK   21  A    between atoms: _50  and  _52
REMARK   22  A    between atoms: _52  and  _53
REMARK   23  A    between atoms: _52  and  _55
REMARK   24  A    between atoms: _55  and  _56
REMARK   25  A    between atoms: _58  and  _60
REMARK   26  A    between atoms: _60  and  _61
REMARK   27  A    between atoms: _60  and  _63
REMARK   28  A    between atoms: _63  and  _64
REMARK   29  A    between atoms: _69  and  _71
REMARK   30  A    between atoms: _71  and  _72
REMARK   31  A    between atoms: _71  and  _74
REMARK   32  A    between atoms: _74  and  _75
REMARK   33  A    between atoms: _80  and  _82
REMARK   34  A    between atoms: _82  and  _83
REMARK   35  A    between atoms: _82  and  _85
REMARK   36  A    between atoms: _85  and  _86
REMARK   37  A    between atoms: _89  and  _91
REMARK   38  A    between atoms: _91  and  _92
REMARK   39  A    between atoms: _94  and  _96
REMARK   40  A    between atoms: _96  and  _97
REMARK   41  A    between atoms: _96  and  _99
REMARK   42  A    between atoms: _99  and  _100
REMARK   43  A    between atoms: _106  and  _108
REMARK   44  A    between atoms: _108  and  _109
REMARK   45  A    between atoms: _108  and  _111
REMARK   46  A    between atoms: _111  and  _112
REMARK   47  A    between atoms: _117  and  _118
REMARK   48  A    between atoms: _120  and  _122
REMARK   49  A    between atoms: _122  and  _123
REMARK   50  A    between atoms: _126  and  _128
REMARK   51  A    between atoms: _128  and  _129
REMARK   52  A    between atoms: _132  and  _134
REMARK   53  A    between atoms: _134  and  _135
REMARK   54  A    between atoms: _134  and  _137
REMARK   55  A    between atoms: _137  and  _138
REMARK   56  A    between atoms: _141  and  _143
REMARK   57  A    between atoms: _143  and  _144
REMARK   58  A    between atoms: _143  and  _146
REMARK   59  A    between atoms: _146  and  _147
REMARK   60  A    between atoms: _152  and  _154
REMARK   61  A    between atoms: _154  and  _155
REMARK   62  A    between atoms: _154  and  _157
REMARK   63  A    between atoms: _157  and  _158
REMARK   64  A    between atoms: _158  and  _159
REMARK   65  A    between atoms: _162  and  _164
REMARK   66  A    between atoms: _164  and  _165
REMARK   67  A    between atoms: _164  and  _167
REMARK   68  A    between atoms: _167  and  _168
REMARK   69  A    between atoms: _170  and  _172
REMARK   70  A    between atoms: _172  and  _173
REMARK   71  A    between atoms: _172  and  _175
REMARK   72  A    between atoms: _175  and  _176
REMARK   73  A    between atoms: _179  and  _181
REMARK   74  A    between atoms: _181  and  _182
REMARK   75  A    between atoms: _181  and  _184
REMARK   76  A    between atoms: _184  and  _185
REMARK   77  A    between atoms: _185  and  _186
REMARK   78  A    between atoms: _186  and  _187
REMARK   79  A    between atoms: _187  and  _188
REMARK   80  A    between atoms: _192  and  _194
REMARK   81  A    between atoms: _194  and  _195
REMARK   82  A    between atoms: _194  and  _197
REMARK   83  A    between atoms: _199  and  _201
REMARK   84  A    between atoms: _201  and  _202
REMARK   85  A    between atoms: _201  and  _204
REMARK   86  A    between atoms: _204  and  _205
REMARK   87  A    between atoms: _207  and  _209
REMARK   88  A    between atoms: _209  and  _210
REMARK   89  A    between atoms: _209  and  _212
REMARK   90  A    between atoms: _212  and  _213
REMARK   91  A    between atoms: _217  and  _218
REMARK   92  A    between atoms: _223  and  _225
REMARK   93  A    between atoms: _225  and  _226
REMARK   94  A    between atoms: _225  and  _228
REMARK   95  A    between atoms: _228  and  _229
REMARK   96  A    between atoms: _231  and  _233
REMARK   97  A    between atoms: _233  and  _234
REMARK   98  A    between atoms: _236  and  _238
REMARK   99  A    between atoms: _238  and  _239
REMARK  100  A    between atoms: _238  and  _241
REMARK  101  A    between atoms: _241  and  _242
REMARK  102  A    between atoms: _245  and  _247
REMARK  103  A    between atoms: _247  and  _248
REMARK  104  A    between atoms: _247  and  _250
REMARK  105  A    between atoms: _250  and  _251
REMARK  106  A    between atoms: _254  and  _256
REMARK  107  A    between atoms: _256  and  _257
REMARK  108  A    between atoms: _260  and  _262
REMARK  109  A    between atoms: _262  and  _263
REMARK  110  A    between atoms: _262  and  _265
REMARK  111  A    between atoms: _265  and  _266
REMARK  112  A    between atoms: _271  and  _272
REMARK  113  A    between atoms: _274  and  _276
REMARK  114  A    between atoms: _276  and  _277
REMARK  115  A    between atoms: _276  and  _279
REMARK  116  A    between atoms: _279  and  _280
REMARK  117  A    between atoms: _285  and  _287
REMARK  118  A    between atoms: _287  and  _288
REMARK  119  A    between atoms: _287  and  _290
REMARK  120  A    between atoms: _290  and  _291
REMARK  121  A    between atoms: _291  and  _292
REMARK  122  A    between atoms: _292  and  _293
REMARK  123  A    between atoms: _293  and  _294
REMARK  124  A    between atoms: _298  and  _300
REMARK  125  A    between atoms: _300  and  _301
REMARK  126  A    between atoms: _300  and  _303
REMARK  127  A    between atoms: _303  and  _304
REMARK  128  A    between atoms: _306  and  _308
REMARK  129  A    between atoms: _308  and  _309
REMARK  130  A    between atoms: _308  and  _311
REMARK  131  A    between atoms: _311  and  _312
REMARK  132  A    between atoms: _315  and  _317
REMARK  133  A    between atoms: _317  and  _318
REMARK  134  A    between atoms: _317  and  _320
REMARK  135  A    between atoms: _320  and  _321
REMARK  136  A    between atoms: _324  and  _326
REMARK  137  A    between atoms: _326  and  _327
REMARK  138  A    between atoms: _326  and  _329
REMARK  139  A    between atoms: _329  and  _330
REMARK  140  A    between atoms: _332  and  _334
REMARK  141  A    between atoms: _334  and  _335
REMARK  142  A    between atoms: _334  and  _337
REMARK  143  A    between atoms: _340  and  _342
REMARK  144  A    between atoms: _342  and  _343
REMARK  145  A    between atoms: _342  and  _345
REMARK  146  A    between atoms: _345  and  _346
REMARK  147  A    between atoms: _349  and  _351
REMARK  148  A    between atoms: _351  and  _352
REMARK  149  A    between atoms: _351  and  _354
REMARK  150  A    between atoms: _354  and  _355
REMARK  151  A    between atoms: _360  and  _362
REMARK  152  A    between atoms: _362  and  _363
REMARK  153  A    between atoms: _362  and  _365
REMARK  154  A    between atoms: _365  and  _366
REMARK  155  A    between atoms: _369  and  _371
REMARK  156  A    between atoms: _371  and  _372
REMARK  157  A    between atoms: _371  and  _374
REMARK  158  A    between atoms: _374  and  _375
REMARK  159  A    between atoms: _381  and  _383
REMARK  160  A    between atoms: _383  and  _384
REMARK  161  A    between atoms: _383  and  _386
REMARK  162  A    between atoms: _386  and  _387
REMARK  163  A    between atoms: _387  and  _388
REMARK  164  A    between atoms: _388  and  _389
REMARK  165  A    between atoms: _398  and  _400
REMARK  166  A    between atoms: _400  and  _401
REMARK  167  A    between atoms: _400  and  _403
REMARK  168  A    between atoms: _406  and  _408
REMARK  169  A    between atoms: _408  and  _409
REMARK  170  A    between atoms: _408  and  _411
REMARK  171  A    between atoms: _411  and  _412
REMARK  172  A    between atoms: _414  and  _416
REMARK  173  A    between atoms: _416  and  _417
REMARK  174  A    between atoms: _416  and  _419
REMARK  175  A    between atoms: _419  and  _420
REMARK  176  A    between atoms: _426  and  _428
REMARK  177  A    between atoms: _428  and  _429
REMARK  178  A    between atoms: _432  and  _433
REMARK  179  A    between atoms: _438  and  _440
REMARK  180  A    between atoms: _440  and  _441
REMARK  181  A    between atoms: _440  and  _443
REMARK  182  A    between atoms: _443  and  _444
REMARK  183  A    between atoms: _450  and  _452
REMARK  184  A    between atoms: _452  and  _453
REMARK  185  A    between atoms: _452  and  _455
REMARK  186  A    between atoms: _455  and  _456
REMARK  187  A    between atoms: _462  and  _464
REMARK  188  A    between atoms: _464  and  _465
REMARK  189  A    between atoms: _464  and  _467
REMARK  190  A    between atoms: _467  and  _468
REMARK  191  A    between atoms: _468  and  _469
REMARK  192  A    between atoms: _469  and  _470
REMARK  193  A    between atoms: _479  and  _481
REMARK  194  A    between atoms: _481  and  _482
REMARK  195  A    between atoms: _484  and  _486
REMARK  196  A    between atoms: _486  and  _487
REMARK  197  A    between atoms: _486  and  _489
REMARK  198  A    between atoms: _489  and  _490
REMARK  199  A    between atoms: _493  and  _495
REMARK  200  A    between atoms: _495  and  _496
REMARK  201  A    between atoms: _498  and  _500
REMARK  202  A    between atoms: _500  and  _501
REMARK  203  A    between atoms: _500  and  _503
REMARK  204  A    between atoms: _503  and  _504
REMARK  205  A    between atoms: _504  and  _505
REMARK  206  A    between atoms: _507  and  _509
REMARK  207  A    between atoms: _509  and  _510
REMARK  208  A    between atoms: _513  and  _515
REMARK  209  A    between atoms: _515  and  _516
REMARK  210  A    between atoms: _515  and  _518
REMARK  211  A    between atoms: _518  and  _519
REMARK  212  A    between atoms: _521  and  _523
REMARK  213  A    between atoms: _523  and  _524
REMARK  214  A    between atoms: _523  and  _526
REMARK  215  A    between atoms: _526  and  _527
REMARK  216  A    between atoms: _530  and  _532
REMARK  217  A    between atoms: _532  and  _533
REMARK  218  A    between atoms: _532  and  _535
REMARK  219  A    between atoms: _535  and  _536
REMARK  220  A    between atoms: _541  and  _543
REMARK  221  A    between atoms: _543  and  _544
REMARK  222  A    between atoms: _543  and  _546
REMARK  223  A    between atoms: _546  and  _547
REMARK  224  A    between atoms: _552  and  _554
REMARK  225  A    between atoms: _554  and  _555
REMARK  226  A    between atoms: _554  and  _557
REMARK  227  A    between atoms: _560  and  _562
REMARK  228  A    between atoms: _562  and  _563
REMARK  229  A    between atoms: _562  and  _565
REMARK  230  A    between atoms: _565  and  _566
REMARK  231  A    between atoms: _571  and  _572
REMARK                            x       y       z     vdW  Elec       q    Type
REMARK                         _______ _______ _______ _____ _____    ______ ____
ROOT
ATOM      1  O   HOH     1      24.757  -1.241   4.886  0.00  0.00    +0.000 OA
ENDROOT
TORSDOF 0
REMARK  Name = ../refined-set-2016/2i2c/2i2c_pocket.pdb
REMARK  231 active torsions:
REMARK  status: ('A' for Active; 'I' for Inactive)
REMARK    1  A    between atoms: _1  and  _3
REMARK    2  A    between atoms: _3  and  _4
REMARK    3  A    between atoms: _6  and  _8
REMARK    4  A    between atoms: _8  and  _9
REMARK    5  A    between atoms: _8  and  _11
REMARK    6  A    between atoms: _11  and  _12
REMARK    7  A    between atoms: _15  and  _17
REMARK    8  A    between atoms: _17  and  _18
REMARK    9  A    between atoms: _20  and  _22
REMARK   10  A    between atoms: _22  and  _23
REMARK   11  A    between atoms: _22  and  _25
REMARK   12  A    between atoms: _25  and  _26
REMARK   13  A    between atoms: _29  and  _31
REMARK   14  A    between atoms: _31  and  _32
REMARK   15  A    between atoms: _31  and  _34
REMARK   16  A    between atoms: _34  and  _35
REMARK   17  A    between atoms: _41  and  _43
REMARK   18  A    between atoms: _43  and  _44
REMARK   19  A    between atoms: _43  and  _46
REMARK   20  A    between atoms: _46  and  _47
REMARK   21  A    between atoms: _50  and  _52
REMARK   22  A    between atoms: _52  and  _53
REMARK   23  A    between atoms: _52  and  _55
REMARK   24  A    between atoms: _55  and  _56
REMARK   25  A    between atoms: _58  and  _60
REMARK   26  A    between atoms: _60  and  _61
REMARK   27  A    between atoms: _60  and  _63
REMARK   28  A    between atoms: _63  and  _64
REMARK   29  A    between atoms: _69  and  _71
REMARK   30  A    between atoms: _71  and  _72
REMARK   31  A    between atoms: _71  and  _74
REMARK   32  A    between atoms: _74  and  _75
REMARK   33  A    between atoms: _80  and  _82
REMARK   34  A    between atoms: _82  and  _83
REMARK   35  A    between atoms: _82  and  _85
REMARK   36  A    between atoms: _85  and  _86
REMARK   37  A    between atoms: _89  and  _91
REMARK   38  A    between atoms: _91  and  _92
REMARK   39  A    between atoms: _94  and  _96
REMARK   40  A    between atoms: _96  and  _97
REMARK   41  A    between atoms: _96  and  _99
REMARK   42  A    between atoms: _99  and  _100
REMARK   43  A    between atoms: _106  and  _108
REMARK   44  A    between atoms: _108  and  _109
REMARK   45  A    between atoms: _108  and  _111
REMARK   46  A    between atoms: _111  and  _112
REMARK   47  A    between atoms: _117  and  _118
REMARK   48  A    between atoms: _120  and  _122
REMARK   49  A    between atoms: _122  and  _123
REMARK   50  A    between atoms: _126  and  _128
REMARK   51  A    between atoms: _128  and  _129
REMARK   52  A    between atoms: _132  and  _134
REMARK   53  A    between atoms: _134  and  _135
REMARK   54  A    between atoms: _134  and  _137
REMARK   55  A    between atoms: _137  and  _138
REMARK   56  A    between atoms: _141  and  _143
REMARK   57  A    between atoms: _143  and  _144
REMARK   58  A    between atoms: _143  and  _146
REMARK   59  A    between atoms: _146  and  _147
REMARK   60  A    between atoms: _152  and  _154
REMARK   61  A    between atoms: _154  and  _155
REMARK   62  A    between atoms: _154  and  _157
REMARK   63  A    between atoms: _157  and  _158
REMARK   64  A    between atoms: _158  and  _159
REMARK   65  A    between atoms: _162  and  _164
REMARK   66  A    between atoms: _164  and  _165
REMARK   67  A    between atoms: _164  and  _167
REMARK   68  A    between atoms: _167  and  _168
REMARK   69  A    between atoms: _170  and  _172
REMARK   70  A    between atoms: _172  and  _173
REMARK   71  A    between atoms: _172  and  _175
REMARK   72  A    between atoms: _175  and  _176
REMARK   73  A    between atoms: _179  and  _181
REMARK   74  A    between atoms: _181  and  _182
REMARK   75  A    between atoms: _181  and  _184
REMARK   76  A    between atoms: _184  and  _185
REMARK   77  A    between atoms: _185  and  _186
REMARK   78  A    between atoms: _186  and  _187
REMARK   79  A    between atoms: _187  and  _188
REMARK   80  A    between atoms: _192  and  _194
REMARK   81  A    between atoms: _194  and  _195
REMARK   82  A    between atoms: _194  and  _197
REMARK   83  A    between atoms: _199  and  _201
REMARK   84  A    between atoms: _201  and  _202
REMARK   85  A    between atoms: _201  and  _204
REMARK   86  A    between atoms: _204  and  _205
REMARK   87  A    between atoms: _207  and  _209
REMARK   88  A    between atoms: _209  and  _210
REMARK   89  A    between atoms: _209  and  _212
REMARK   90  A    between atoms: _212  and  _213
REMARK   91  A    between atoms: _217  and  _218
REMARK   92  A    between atoms: _223  and  _225
REMARK   93  A    between atoms: _225  and  _226
REMARK   94  A    between atoms: _225  and  _228
REMARK   95  A    between atoms: _228  and  _229
REMARK   96  A    between atoms: _231  and  _233
REMARK   97  A    between atoms: _233  and  _234
REMARK   98  A    between atoms: _236  and  _238
REMARK   99  A    between atoms: _238  and  _239
REMARK  100  A    between atoms: _238  and  _241
REMARK  101  A    between atoms: _241  and  _242
REMARK  102  A    between atoms: _245  and  _247
REMARK  103  A    between atoms: _247  and  _248
REMARK  104  A    between atoms: _247  and  _250
REMARK  105  A    between atoms: _250  and  _251
REMARK  106  A    between atoms: _254  and  _256
REMARK  107  A    between atoms: _256  and  _257
REMARK  108  A    between atoms: _260  and  _262
REMARK  109  A    between atoms: _262  and  _263
REMARK  110  A    between atoms: _262  and  _265
REMARK  111  A    between atoms: _265  and  _266
REMARK  112  A    between atoms: _271  and  _272
REMARK  113  A    between atoms: _274  and  _276
REMARK  114  A    between atoms: _276  and  _277
REMARK  115  A    between atoms: _276  and  _279
REMARK  116  A    between atoms: _279  and  _280
REMARK  117  A    between atoms: _285  and  _287
REMARK  118  A    between atoms: _287  and  _288
REMARK  119  A    between atoms: _287  and  _290
REMARK  120  A    between atoms: _290  and  _291
REMARK  121  A    between atoms: _291  and  _292
REMARK  122  A    between atoms: _292  and  _293
REMARK  123  A    between atoms: _293  and  _294
REMARK  124  A    between atoms: _298  and  _300
REMARK  125  A    between atoms: _300  and  _301
REMARK  126  A    between atoms: _300  and  _303
REMARK  127  A    between atoms: _303  and  _304
REMARK  128  A    between atoms: _306  and  _308
REMARK  129  A    between atoms: _308  and  _309
REMARK  130  A    between atoms: _308  and  _311
REMARK  131  A    between atoms: _311  and  _312
REMARK  132  A    between atoms: _315  and  _317
REMARK  133  A    between atoms: _317  and  _318
REMARK  134  A    between atoms: _317  and  _320
REMARK  135  A    between atoms: _320  and  _321
REMARK  136  A    between atoms: _324  and  _326
REMARK  137  A    between atoms: _326  and  _327
REMARK  138  A    between atoms: _326  and  _329
REMARK  139  A    between atoms: _329  and  _330
REMARK  140  A    between atoms: _332  and  _334
REMARK  141  A    between atoms: _334  and  _335
REMARK  142  A    between atoms: _334  and  _337
REMARK  143  A    between atoms: _340  and  _342
REMARK  144  A    between atoms: _342  and  _343
REMARK  145  A    between atoms: _342  and  _345
REMARK  146  A    between atoms: _345  and  _346
REMARK  147  A    between atoms: _349  and  _351
REMARK  148  A    between atoms: _351  and  _352
REMARK  149  A    between atoms: _351  and  _354
REMARK  150  A    between atoms: _354  and  _355
REMARK  151  A    between atoms: _360  and  _362
REMARK  152  A    between atoms: _362  and  _363
REMARK  153  A    between atoms: _362  and  _365
REMARK  154  A    between atoms: _365  and  _366
REMARK  155  A    between atoms: _369  and  _371
REMARK  156  A    between atoms: _371  and  _372
REMARK  157  A    between atoms: _371  and  _374
REMARK  158  A    between atoms: _374  and  _375
REMARK  159  A    between atoms: _381  and  _383
REMARK  160  A    between atoms: _383  and  _384
REMARK  161  A    between atoms: _383  and  _386
REMARK  162  A    between atoms: _386  and  _387
REMARK  163  A    between atoms: _387  and  _388
REMARK  164  A    between atoms: _388  and  _389
REMARK  165  A    between atoms: _398  and  _400
REMARK  166  A    between atoms: _400  and  _401
REMARK  167  A    between atoms: _400  and  _403
REMARK  168  A    between atoms: _406  and  _408
REMARK  169  A    between atoms: _408  and  _409
REMARK  170  A    between atoms: _408  and  _411
REMARK  171  A    between atoms: _411  and  _412
REMARK  172  A    between atoms: _414  and  _416
REMARK  173  A    between atoms: _416  and  _417
REMARK  174  A    between atoms: _416  and  _419
REMARK  175  A    between atoms: _419  and  _420
REMARK  176  A    between atoms: _426  and  _428
REMARK  177  A    between atoms: _428  and  _429
REMARK  178  A    between atoms: _432  and  _433
REMARK  179  A    between atoms: _438  and  _440
REMARK  180  A    between atoms: _440  and  _441
REMARK  181  A    between atoms: _440  and  _443
REMARK  182  A    between atoms: _443  and  _444
REMARK  183  A    between atoms: _450  and  _452
REMARK  184  A    between atoms: _452  and  _453
REMARK  185  A    between atoms: _452  and  _455
REMARK  186  A    between atoms: _455  and  _456
REMARK  187  A    between atoms: _462  and  _464
REMARK  188  A    between atoms: _464  and  _465
REMARK  189  A    between atoms: _464  and  _467
REMARK  190  A    between atoms: _467  and  _468
REMARK  191  A    between atoms: _468  and  _469
REMARK  192  A    between atoms: _469  and  _470
REMARK  193  A    between atoms: _479  and  _481
REMARK  194  A    between atoms: _481  and  _482
REMARK  195  A    between atoms: _484  and  _486
REMARK  196  A    between atoms: _486  and  _487
REMARK  197  A    between atoms: _486  and  _489
REMARK  198  A    between atoms: _489  and  _490
REMARK  199  A    between atoms: _493  and  _495
REMARK  200  A    between atoms: _495  and  _496
REMARK  201  A    between atoms: _498  and  _500
REMARK  202  A    between atoms: _500  and  _501
REMARK  203  A    between atoms: _500  and  _503
REMARK  204  A    between atoms: _503  and  _504
REMARK  205  A    between atoms: _504  and  _505
REMARK  206  A    between atoms: _507  and  _509
REMARK  207  A    between atoms: _509  and  _510
REMARK  208  A    between atoms: _513  and  _515
REMARK  209  A    between atoms: _515  and  _516
REMARK  210  A    between atoms: _515  and  _518
REMARK  211  A    between atoms: _518  and  _519
REMARK  212  A    between atoms: _521  and  _523
REMARK  213  A    between atoms: _523  and  _524
REMARK  214  A    between atoms: _523  and  _526
REMARK  215  A    between atoms: _526  and  _527
REMARK  216  A    between atoms: _530  and  _532
REMARK  217  A    between atoms: _532  and  _533
REMARK  218  A    between atoms: _532  and  _535
REMARK  219  A    between atoms: _535  and  _536
REMARK  220  A    between atoms: _541  and  _543
REMARK  221  A    between atoms: _543  and  _544
REMARK  222  A    between atoms: _543  and  _546
REMARK  223  A    between atoms: _546  and  _547
REMARK  224  A    between atoms: _552  and  _554
REMARK  225  A    between atoms: _554  and  _555
REMARK  226  A    between atoms: _554  and  _557
REMARK  227  A    between atoms: _560  and  _562
REMARK  228  A    between atoms: _562  and  _563
REMARK  229  A    between atoms: _562  and  _565
REMARK  230  A    between atoms: _565  and  _566
REMARK  231  A    between atoms: _571  and  _572
REMARK                            x       y       z     vdW  Elec       q    Type
REMARK                         _______ _______ _______ _____ _____    ______ ____
ROOT
ATOM      1  O   HOH     1      12.313  -1.251   5.354  0.00  0.00    +0.000 OA
ENDROOT
TORSDOF 0
REMARK  Name = ../refined-set-2016/2i2c/2i2c_pocket.pdb
REMARK  231 active torsions:
REMARK  status: ('A' for Active; 'I' for Inactive)
REMARK    1  A    between atoms: _1  and  _3
REMARK    2  A    between atoms: _3  and  _4
REMARK    3  A    between atoms: _6  and  _8
REMARK    4  A    between atoms: _8  and  _9
REMARK    5  A    between atoms: _8  and  _11
REMARK    6  A    between atoms: _11  and  _12
REMARK    7  A    between atoms: _15  and  _17
REMARK    8  A    between atoms: _17  and  _18
REMARK    9  A    between atoms: _20  and  _22
REMARK   10  A    between atoms: _22  and  _23
REMARK   11  A    between atoms: _22  and  _25
REMARK   12  A    between atoms: _25  and  _26
REMARK   13  A    between atoms: _29  and  _31
REMARK   14  A    between atoms: _31  and  _32
REMARK   15  A    between atoms: _31  and  _34
REMARK   16  A    between atoms: _34  and  _35
REMARK   17  A    between atoms: _41  and  _43
REMARK   18  A    between atoms: _43  and  _44
REMARK   19  A    between atoms: _43  and  _46
REMARK   20  A    between atoms: _46  and  _47
REMARK   21  A    between atoms: _50  and  _52
REMARK   22  A    between atoms: _52  and  _53
REMARK   23  A    between atoms: _52  and  _55
REMARK   24  A    between atoms: _55  and  _56
REMARK   25  A    between atoms: _58  and  _60
REMARK   26  A    between atoms: _60  and  _61
REMARK   27  A    between atoms: _60  and  _63
REMARK   28  A    between atoms: _63  and  _64
REMARK   29  A    between atoms: _69  and  _71
REMARK   30  A    between atoms: _71  and  _72
REMARK   31  A    between atoms: _71  and  _74
REMARK   32  A    between atoms: _74  and  _75
REMARK   33  A    between atoms: _80  and  _82
REMARK   34  A    between atoms: _82  and  _83
REMARK   35  A    between atoms: _82  and  _85
REMARK   36  A    between atoms: _85  and  _86
REMARK   37  A    between atoms: _89  and  _91
REMARK   38  A    between atoms: _91  and  _92
REMARK   39  A    between atoms: _94  and  _96
REMARK   40  A    between atoms: _96  and  _97
REMARK   41  A    between atoms: _96  and  _99
REMARK   42  A    between atoms: _99  and  _100
REMARK   43  A    between atoms: _106  and  _108
REMARK   44  A    between atoms: _108  and  _109
REMARK   45  A    between atoms: _108  and  _111
REMARK   46  A    between atoms: _111  and  _112
REMARK   47  A    between atoms: _117  and  _118
REMARK   48  A    between atoms: _120  and  _122
REMARK   49  A    between atoms: _122  and  _123
REMARK   50  A    between atoms: _126  and  _128
REMARK   51  A    between atoms: _128  and  _129
REMARK   52  A    between atoms: _132  and  _134
REMARK   53  A    between atoms: _134  and  _135
REMARK   54  A    between atoms: _134  and  _137
REMARK   55  A    between atoms: _137  and  _138
REMARK   56  A    between atoms: _141  and  _143
REMARK   57  A    between atoms: _143  and  _144
REMARK   58  A    between atoms: _143  and  _146
REMARK   59  A    between atoms: _146  and  _147
REMARK   60  A    between atoms: _152  and  _154
REMARK   61  A    between atoms: _154  and  _155
REMARK   62  A    between atoms: _154  and  _157
REMARK   63  A    between atoms: _157  and  _158
REMARK   64  A    between atoms: _158  and  _159
REMARK   65  A    between atoms: _162  and  _164
REMARK   66  A    between atoms: _164  and  _165
REMARK   67  A    between atoms: _164  and  _167
REMARK   68  A    between atoms: _167  and  _168
REMARK   69  A    between atoms: _170  and  _172
REMARK   70  A    between atoms: _172  and  _173
REMARK   71  A    between atoms: _172  and  _175
REMARK   72  A    between atoms: _175  and  _176
REMARK   73  A    between atoms: _179  and  _181
REMARK   74  A    between atoms: _181  and  _182
REMARK   75  A    between atoms: _181  and  _184
REMARK   76  A    between atoms: _184  and  _185
REMARK   77  A    between atoms: _185  and  _186
REMARK   78  A    between atoms: _186  and  _187
REMARK   79  A    between atoms: _187  and  _188
REMARK   80  A    between atoms: _192  and  _194
REMARK   81  A    between atoms: _194  and  _195
REMARK   82  A    between atoms: _194  and  _197
REMARK   83  A    between atoms: _199  and  _201
REMARK   84  A    between atoms: _201  and  _202
REMARK   85  A    between atoms: _201  and  _204
REMARK   86  A    between atoms: _204  and  _205
REMARK   87  A    between atoms: _207  and  _209
REMARK   88  A    between atoms: _209  and  _210
REMARK   89  A    between atoms: _209  and  _212
REMARK   90  A    between atoms: _212  and  _213
REMARK   91  A    between atoms: _217  and  _218
REMARK   92  A    between atoms: _223  and  _225
REMARK   93  A    between atoms: _225  and  _226
REMARK   94  A    between atoms: _225  and  _228
REMARK   95  A    between atoms: _228  and  _229
REMARK   96  A    between atoms: _231  and  _233
REMARK   97  A    between atoms: _233  and  _234
REMARK   98  A    between atoms: _236  and  _238
REMARK   99  A    between atoms: _238  and  _239
REMARK  100  A    between atoms: _238  and  _241
REMARK  101  A    between atoms: _241  and  _242
REMARK  102  A    between atoms: _245  and  _247
REMARK  103  A    between atoms: _247  and  _248
REMARK  104  A    between atoms: _247  and  _250
REMARK  105  A    between atoms: _250  and  _251
REMARK  106  A    between atoms: _254  and  _256
REMARK  107  A    between atoms: _256  and  _257
REMARK  108  A    between atoms: _260  and  _262
REMARK  109  A    between atoms: _262  and  _263
REMARK  110  A    between atoms: _262  and  _265
REMARK  111  A    between atoms: _265  and  _266
REMARK  112  A    between atoms: _271  and  _272
REMARK  113  A    between atoms: _274  and  _276
REMARK  114  A    between atoms: _276  and  _277
REMARK  115  A    between atoms: _276  and  _279
REMARK  116  A    between atoms: _279  and  _280
REMARK  117  A    between atoms: _285  and  _287
REMARK  118  A    between atoms: _287  and  _288
REMARK  119  A    between atoms: _287  and  _290
REMARK  120  A    between atoms: _290  and  _291
REMARK  121  A    between atoms: _291  and  _292
REMARK  122  A    between atoms: _292  and  _293
REMARK  123  A    between atoms: _293  and  _294
REMARK  124  A    between atoms: _298  and  _300
REMARK  125  A    between atoms: _300  and  _301
REMARK  126  A    between atoms: _300  and  _303
REMARK  127  A    between atoms: _303  and  _304
REMARK  128  A    between atoms: _306  and  _308
REMARK  129  A    between atoms: _308  and  _309
REMARK  130  A    between atoms: _308  and  _311
REMARK  131  A    between atoms: _311  and  _312
REMARK  132  A    between atoms: _315  and  _317
REMARK  133  A    between atoms: _317  and  _318
REMARK  134  A    between atoms: _317  and  _320
REMARK  135  A    between atoms: _320  and  _321
REMARK  136  A    between atoms: _324  and  _326
REMARK  137  A    between atoms: _326  and  _327
REMARK  138  A    between atoms: _326  and  _329
REMARK  139  A    between atoms: _329  and  _330
REMARK  140  A    between atoms: _332  and  _334
REMARK  141  A    between atoms: _334  and  _335
REMARK  142  A    between atoms: _334  and  _337
REMARK  143  A    between atoms: _340  and  _342
REMARK  144  A    between atoms: _342  and  _343
REMARK  145  A    between atoms: _342  and  _345
REMARK  146  A    between atoms: _345  and  _346
REMARK  147  A    between atoms: _349  and  _351
REMARK  148  A    between atoms: _351  and  _352
REMARK  149  A    between atoms: _351  and  _354
REMARK  150  A    between atoms: _354  and  _355
REMARK  151  A    between atoms: _360  and  _362
REMARK  152  A    between atoms: _362  and  _363
REMARK  153  A    between atoms: _362  and  _365
REMARK  154  A    between atoms: _365  and  _366
REMARK  155  A    between atoms: _369  and  _371
REMARK  156  A    between atoms: _371  and  _372
REMARK  157  A    between atoms: _371  and  _374
REMARK  158  A    between atoms: _374  and  _375
REMARK  159  A    between atoms: _381  and  _383
REMARK  160  A    between atoms: _383  and  _384
REMARK  161  A    between atoms: _383  and  _386
REMARK  162  A    between atoms: _386  and  _387
REMARK  163  A    between atoms: _387  and  _388
REMARK  164  A    between atoms: _388  and  _389
REMARK  165  A    between atoms: _398  and  _400
REMARK  166  A    between atoms: _400  and  _401
REMARK  167  A    between atoms: _400  and  _403
REMARK  168  A    between atoms: _406  and  _408
REMARK  169  A    between atoms: _408  and  _409
REMARK  170  A    between atoms: _408  and  _411
REMARK  171  A    between atoms: _411  and  _412
REMARK  172  A    between atoms: _414  and  _416
REMARK  173  A    between atoms: _416  and  _417
REMARK  174  A    between atoms: _416  and  _419
REMARK  175  A    between atoms: _419  and  _420
REMARK  176  A    between atoms: _426  and  _428
REMARK  177  A    between atoms: _428  and  _429
REMARK  178  A    between atoms: _432  and  _433
REMARK  179  A    between atoms: _438  and  _440
REMARK  180  A    between atoms: _440  and  _441
REMARK  181  A    between atoms: _440  and  _443
REMARK  182  A    between atoms: _443  and  _444
REMARK  183  A    between atoms: _450  and  _452
REMARK  184  A    between atoms: _452  and  _453
REMARK  185  A    between atoms: _452  and  _455
REMARK  186  A    between atoms: _455  and  _456
REMARK  187  A    between atoms: _462  and  _464
REMARK  188  A    between atoms: _464  and  _465
REMARK  189  A    between atoms: _464  and  _467
REMARK  190  A    between atoms: _467  and  _468
REMARK  191  A    between atoms: _468  and  _469
REMARK  192  A    between atoms: _469  and  _470
REMARK  193  A    between atoms: _479  and  _481
REMARK  194  A    between atoms: _481  and  _482
REMARK  195  A    between atoms: _484  and  _486
REMARK  196  A    between atoms: _486  and  _487
REMARK  197  A    between atoms: _486  and  _489
REMARK  198  A    between atoms: _489  and  _490
REMARK  199  A    between atoms: _493  and  _495
REMARK  200  A    between atoms: _495  and  _496
REMARK  201  A    between atoms: _498  and  _500
REMARK  202  A    between atoms: _500  and  _501
REMARK  203  A    between atoms: _500  and  _503
REMARK  204  A    between atoms: _503  and  _504
REMARK  205  A    between atoms: _504  and  _505
REMARK  206  A    between atoms: _507  and  _509
REMARK  207  A    between atoms: _509  and  _510
REMARK  208  A    between atoms: _513  and  _515
REMARK  209  A    between atoms: _515  and  _516
REMARK  210  A    between atoms: _515  and  _518
REMARK  211  A    between atoms: _518  and  _519
REMARK  212  A    between atoms: _521  and  _523
REMARK  213  A    between atoms: _523  and  _524
REMARK  214  A    between atoms: _523  and  _526
REMARK  215  A    between atoms: _526  and  _527
REMARK  216  A    between atoms: _530  and  _532
REMARK  217  A    between atoms: _532  and  _533
REMARK  218  A    between atoms: _532  and  _535
REMARK  219  A    between atoms: _535  and  _536
REMARK  220  A    between atoms: _541  and  _543
REMARK  221  A    between atoms: _543  and  _544
REMARK  222  A    between atoms: _543  and  _546
REMARK  223  A    between atoms: _546  and  _547
REMARK  224  A    between atoms: _552  and  _554
REMARK  225  A    between atoms: _554  and  _555
REMARK  226  A    between atoms: _554  and  _557
REMARK  227  A    between atoms: _560  and  _562
REMARK  228  A    between atoms: _562  and  _563
REMARK  229  A    between atoms: _562  and  _565
REMARK  230  A    between atoms: _565  and  _566
REMARK  231  A    between atoms: _571  and  _572
REMARK                            x       y       z     vdW  Elec       q    Type
REMARK                         _______ _______ _______ _____ _____    ______ ____
ROOT
ATOM      1  O   HOH     1      15.770   0.854  11.960  0.00  0.00    +0.000 OA
ENDROOT
TORSDOF 0
REMARK  Name = ../refined-set-2016/2i2c/2i2c_pocket.pdb
REMARK  231 active torsions:
REMARK  status: ('A' for Active; 'I' for Inactive)
REMARK    1  A    between atoms: _1  and  _3
REMARK    2  A    between atoms: _3  and  _4
REMARK    3  A    between atoms: _6  and  _8
REMARK    4  A    between atoms: _8  and  _9
REMARK    5  A    between atoms: _8  and  _11
REMARK    6  A    between atoms: _11  and  _12
REMARK    7  A    between atoms: _15  and  _17
REMARK    8  A    between atoms: _17  and  _18
REMARK    9  A    between atoms: _20  and  _22
REMARK   10  A    between atoms: _22  and  _23
REMARK   11  A    between atoms: _22  and  _25
REMARK   12  A    between atoms: _25  and  _26
REMARK   13  A    between atoms: _29  and  _31
REMARK   14  A    between atoms: _31  and  _32
REMARK   15  A    between atoms: _31  and  _34
REMARK   16  A    between atoms: _34  and  _35
REMARK   17  A    between atoms: _41  and  _43
REMARK   18  A    between atoms: _43  and  _44
REMARK   19  A    between atoms: _43  and  _46
REMARK   20  A    between atoms: _46  and  _47
REMARK   21  A    between atoms: _50  and  _52
REMARK   22  A    between atoms: _52  and  _53
REMARK   23  A    between atoms: _52  and  _55
REMARK   24  A    between atoms: _55  and  _56
REMARK   25  A    between atoms: _58  and  _60
REMARK   26  A    between atoms: _60  and  _61
REMARK   27  A    between atoms: _60  and  _63
REMARK   28  A    between atoms: _63  and  _64
REMARK   29  A    between atoms: _69  and  _71
REMARK   30  A    between atoms: _71  and  _72
REMARK   31  A    between atoms: _71  and  _74
REMARK   32  A    between atoms: _74  and  _75
REMARK   33  A    between atoms: _80  and  _82
REMARK   34  A    between atoms: _82  and  _83
REMARK   35  A    between atoms: _82  and  _85
REMARK   36  A    between atoms: _85  and  _86
REMARK   37  A    between atoms: _89  and  _91
REMARK   38  A    between atoms: _91  and  _92
REMARK   39  A    between atoms: _94  and  _96
REMARK   40  A    between atoms: _96  and  _97
REMARK   41  A    between atoms: _96  and  _99
REMARK   42  A    between atoms: _99  and  _100
REMARK   43  A    between atoms: _106  and  _108
REMARK   44  A    between atoms: _108  and  _109
REMARK   45  A    between atoms: _108  and  _111
REMARK   46  A    between atoms: _111  and  _112
REMARK   47  A    between atoms: _117  and  _118
REMARK   48  A    between atoms: _120  and  _122
REMARK   49  A    between atoms: _122  and  _123
REMARK   50  A    between atoms: _126  and  _128
REMARK   51  A    between atoms: _128  and  _129
REMARK   52  A    between atoms: _132  and  _134
REMARK   53  A    between atoms: _134  and  _135
REMARK   54  A    between atoms: _134  and  _137
REMARK   55  A    between atoms: _137  and  _138
REMARK   56  A    between atoms: _141  and  _143
REMARK   57  A    between atoms: _143  and  _144
REMARK   58  A    between atoms: _143  and  _146
REMARK   59  A    between atoms: _146  and  _147
REMARK   60  A    between atoms: _152  and  _154
REMARK   61  A    between atoms: _154  and  _155
REMARK   62  A    between atoms: _154  and  _157
REMARK   63  A    between atoms: _157  and  _158
REMARK   64  A    between atoms: _158  and  _159
REMARK   65  A    between atoms: _162  and  _164
REMARK   66  A    between atoms: _164  and  _165
REMARK   67  A    between atoms: _164  and  _167
REMARK   68  A    between atoms: _167  and  _168
REMARK   69  A    between atoms: _170  and  _172
REMARK   70  A    between atoms: _172  and  _173
REMARK   71  A    between atoms: _172  and  _175
REMARK   72  A    between atoms: _175  and  _176
REMARK   73  A    between atoms: _179  and  _181
REMARK   74  A    between atoms: _181  and  _182
REMARK   75  A    between atoms: _181  and  _184
REMARK   76  A    between atoms: _184  and  _185
REMARK   77  A    between atoms: _185  and  _186
REMARK   78  A    between atoms: _186  and  _187
REMARK   79  A    between atoms: _187  and  _188
REMARK   80  A    between atoms: _192  and  _194
REMARK   81  A    between atoms: _194  and  _195
REMARK   82  A    between atoms: _194  and  _197
REMARK   83  A    between atoms: _199  and  _201
REMARK   84  A    between atoms: _201  and  _202
REMARK   85  A    between atoms: _201  and  _204
REMARK   86  A    between atoms: _204  and  _205
REMARK   87  A    between atoms: _207  and  _209
REMARK   88  A    between atoms: _209  and  _210
REMARK   89  A    between atoms: _209  and  _212
REMARK   90  A    between atoms: _212  and  _213
REMARK   91  A    between atoms: _217  and  _218
REMARK   92  A    between atoms: _223  and  _225
REMARK   93  A    between atoms: _225  and  _226
REMARK   94  A    between atoms: _225  and  _228
REMARK   95  A    between atoms: _228  and  _229
REMARK   96  A    between atoms: _231  and  _233
REMARK   97  A    between atoms: _233  and  _234
REMARK   98  A    between atoms: _236  and  _238
REMARK   99  A    between atoms: _238  and  _239
REMARK  100  A    between atoms: _238  and  _241
REMARK  101  A    between atoms: _241  and  _242
REMARK  102  A    between atoms: _245  and  _247
REMARK  103  A    between atoms: _247  and  _248
REMARK  104  A    between atoms: _247  and  _250
REMARK  105  A    between atoms: _250  and  _251
REMARK  106  A    between atoms: _254  and  _256
REMARK  107  A    between atoms: _256  and  _257
REMARK  108  A    between atoms: _260  and  _262
REMARK  109  A    between atoms: _262  and  _263
REMARK  110  A    between atoms: _262  and  _265
REMARK  111  A    between atoms: _265  and  _266
REMARK  112  A    between atoms: _271  and  _272
REMARK  113  A    between atoms: _274  and  _276
REMARK  114  A    between atoms: _276  and  _277
REMARK  115  A    between atoms: _276  and  _279
REMARK  116  A    between atoms: _279  and  _280
REMARK  117  A    between atoms: _285  and  _287
REMARK  118  A    between atoms: _287  and  _288
REMARK  119  A    between atoms: _287  and  _290
REMARK  120  A    between atoms: _290  and  _291
REMARK  121  A    between atoms: _291  and  _292
REMARK  122  A    between atoms: _292  and  _293
REMARK  123  A    between atoms: _293  and  _294
REMARK  124  A    between atoms: _298  and  _300
REMARK  125  A    between atoms: _300  and  _301
REMARK  126  A    between atoms: _300  and  _303
REMARK  127  A    between atoms: _303  and  _304
REMARK  128  A    between atoms: _306  and  _308
REMARK  129  A    between atoms: _308  and  _309
REMARK  130  A    between atoms: _308  and  _311
REMARK  131  A    between atoms: _311  and  _312
REMARK  132  A    between atoms: _315  and  _317
REMARK  133  A    between atoms: _317  and  _318
REMARK  134  A    between atoms: _317  and  _320
REMARK  135  A    between atoms: _320  and  _321
REMARK  136  A    between atoms: _324  and  _326
REMARK  137  A    between atoms: _326  and  _327
REMARK  138  A    between atoms: _326  and  _329
REMARK  139  A    between atoms: _329  and  _330
REMARK  140  A    between atoms: _332  and  _334
REMARK  141  A    between atoms: _334  and  _335
REMARK  142  A    between atoms: _334  and  _337
REMARK  143  A    between atoms: _340  and  _342
REMARK  144  A    between atoms: _342  and  _343
REMARK  145  A    between atoms: _342  and  _345
REMARK  146  A    between atoms: _345  and  _346
REMARK  147  A    between atoms: _349  and  _351
REMARK  148  A    between atoms: _351  and  _352
REMARK  149  A    between atoms: _351  and  _354
REMARK  150  A    between atoms: _354  and  _355
REMARK  151  A    between atoms: _360  and  _362
REMARK  152  A    between atoms: _362  and  _363
REMARK  153  A    between atoms: _362  and  _365
REMARK  154  A    between atoms: _365  and  _366
REMARK  155  A    between atoms: _369  and  _371
REMARK  156  A    between atoms: _371  and  _372
REMARK  157  A    between atoms: _371  and  _374
REMARK  158  A    between atoms: _374  and  _375
REMARK  159  A    between atoms: _381  and  _383
REMARK  160  A    between atoms: _383  and  _384
REMARK  161  A    between atoms: _383  and  _386
REMARK  162  A    between atoms: _386  and  _387
REMARK  163  A    between atoms: _387  and  _388
REMARK  164  A    between atoms: _388  and  _389
REMARK  165  A    between atoms: _398  and  _400
REMARK  166  A    between atoms: _400  and  _401
REMARK  167  A    between atoms: _400  and  _403
REMARK  168  A    between atoms: _406  and  _408
REMARK  169  A    between atoms: _408  and  _409
REMARK  170  A    between atoms: _408  and  _411
REMARK  171  A    between atoms: _411  and  _412
REMARK  172  A    between atoms: _414  and  _416
REMARK  173  A    between atoms: _416  and  _417
REMARK  174  A    between atoms: _416  and  _419
REMARK  175  A    between atoms: _419  and  _420
REMARK  176  A    between atoms: _426  and  _428
REMARK  177  A    between atoms: _428  and  _429
REMARK  178  A    between atoms: _432  and  _433
REMARK  179  A    between atoms: _438  and  _440
REMARK  180  A    between atoms: _440  and  _441
REMARK  181  A    between atoms: _440  and  _443
REMARK  182  A    between atoms: _443  and  _444
REMARK  183  A    between atoms: _450  and  _452
REMARK  184  A    between atoms: _452  and  _453
REMARK  185  A    between atoms: _452  and  _455
REMARK  186  A    between atoms: _455  and  _456
REMARK  187  A    between atoms: _462  and  _464
REMARK  188  A    between atoms: _464  and  _465
REMARK  189  A    between atoms: _464  and  _467
REMARK  190  A    between atoms: _467  and  _468
REMARK  191  A    between atoms: _468  and  _469
REMARK  192  A    between atoms: _469  and  _470
REMARK  193  A    between atoms: _479  and  _481
REMARK  194  A    between atoms: _481  and  _482
REMARK  195  A    between atoms: _484  and  _486
REMARK  196  A    between atoms: _486  and  _487
REMARK  197  A    between atoms: _486  and  _489
REMARK  198  A    between atoms: _489  and  _490
REMARK  199  A    between atoms: _493  and  _495
REMARK  200  A    between atoms: _495  and  _496
REMARK  201  A    between atoms: _498  and  _500
REMARK  202  A    between atoms: _500  and  _501
REMARK  203  A    between atoms: _500  and  _503
REMARK  204  A    between atoms: _503  and  _504
REMARK  205  A    between atoms: _504  and  _505
REMARK  206  A    between atoms: _507  and  _509
REMARK  207  A    between atoms: _509  and  _510
REMARK  208  A    between atoms: _513  and  _515
REMARK  209  A    between atoms: _515  and  _516
REMARK  210  A    between atoms: _515  and  _518
REMARK  211  A    between atoms: _518  and  _519
REMARK  212  A    between atoms: _521  and  _523
REMARK  213  A    between atoms: _523  and  _524
REMARK  214  A    between atoms: _523  and  _526
REMARK  215  A    between atoms: _526  and  _527
REMARK  216  A    between atoms: _530  and  _532
REMARK  217  A    between atoms: _532  and  _533
REMARK  218  A    between atoms: _532  and  _535
REMARK  219  A    between atoms: _535  and  _536
REMARK  220  A    between atoms: _541  and  _543
REMARK  221  A    between atoms: _543  and  _544
REMARK  222  A    between atoms: _543  and  _546
REMARK  223  A    between atoms: _546  and  _547
REMARK  224  A    between atoms: _552  and  _554
REMARK  225  A    between atoms: _554  and  _555
REMARK  226  A    between atoms: _554  and  _557
REMARK  227  A    between atoms: _560  and  _562
REMARK  228  A    between atoms: _562  and  _563
REMARK  229  A    between atoms: _562  and  _565
REMARK  230  A    between atoms: _565  and  _566
REMARK  231  A    between atoms: _571  and  _572
REMARK                            x       y       z     vdW  Elec       q    Type
REMARK                         _______ _______ _______ _____ _____    ______ ____
ROOT
ATOM      1  O   HOH     1      27.468   4.227  10.074  0.00  0.00    +0.000 OA
ENDROOT
TORSDOF 0
