REMARK  Name = ../refined-set-2016/3sk2/3sk2_pocket.pdb
REMARK  119 active torsions:
REMARK  status: ('A' for Active; 'I' for Inactive)
REMARK    1  A    between atoms: _1  and  _3
REMARK    2  A    between atoms: _3  and  _4
REMARK    3  A    between atoms: _3  and  _6
REMARK    4  A    between atoms: _6  and  _7
REMARK    5  A    between atoms: _7  and  _8
REMARK    6  A    between atoms: _11  and  _13
REMARK    7  A    between atoms: _13  and  _14
REMARK    8  A    between atoms: _13  and  _16
REMARK    9  A    between atoms: _16  and  _17
REMARK   10  A    between atoms: _17  and  _18
REMARK   11  A    between atoms: _20  and  _22
REMARK   12  A    between atoms: _22  and  _23
REMARK   13  A    between atoms: _22  and  _25
REMARK   14  A    between atoms: _25  and  _26
REMARK   15  A    between atoms: _31  and  _32
REMARK   16  A    between atoms: _34  and  _36
REMARK   17  A    between atoms: _36  and  _37
REMARK   18  A    between atoms: _36  and  _39
REMARK   19  A    between atoms: _39  and  _40
REMARK   20  A    between atoms: _43  and  _45
REMARK   21  A    between atoms: _45  and  _46
REMARK   22  A    between atoms: _45  and  _48
REMARK   23  A    between atoms: _51  and  _53
REMARK   24  A    between atoms: _53  and  _54
REMARK   25  A    between atoms: _53  and  _56
REMARK   26  A    between atoms: _56  and  _57
REMARK   27  A    between atoms: _63  and  _65
REMARK   28  A    between atoms: _65  and  _66
REMARK   29  A    between atoms: _68  and  _70
REMARK   30  A    between atoms: _70  and  _71
REMARK   31  A    between atoms: _70  and  _73
REMARK   32  A    between atoms: _73  and  _74
REMARK   33  A    between atoms: _77  and  _79
REMARK   34  A    between atoms: _79  and  _80
REMARK   35  A    between atoms: _79  and  _82
REMARK   36  A    between atoms: _82  and  _83
REMARK   37  A    between atoms: _83  and  _84
REMARK   38  A    between atoms: _84  and  _85
REMARK   39  A    between atoms: _94  and  _96
REMARK   40  A    between atoms: _96  and  _97
REMARK   41  A    between atoms: _96  and  _99
REMARK   42  A    between atoms: _102  and  _104
REMARK   43  A    between atoms: _104  and  _105
REMARK   44  A    between atoms: _104  and  _107
REMARK   45  A    between atoms: _110  and  _111
REMARK   46  A    between atoms: _116  and  _118
REMARK   47  A    between atoms: _118  and  _119
REMARK   48  A    between atoms: _118  and  _121
REMARK   49  A    between atoms: _121  and  _122
REMARK   50  A    between atoms: _125  and  _127
REMARK   51  A    between atoms: _127  and  _128
REMARK   52  A    between atoms: _127  and  _130
REMARK   53  A    between atoms: _130  and  _131
REMARK   54  A    between atoms: _135  and  _137
REMARK   55  A    between atoms: _137  and  _138
REMARK   56  A    between atoms: _137  and  _140
REMARK   57  A    between atoms: _140  and  _141
REMARK   58  A    between atoms: _144  and  _146
REMARK   59  A    between atoms: _146  and  _147
REMARK   60  A    between atoms: _146  and  _149
REMARK   61  A    between atoms: _149  and  _150
REMARK   62  A    between atoms: _153  and  _155
REMARK   63  A    between atoms: _155  and  _156
REMARK   64  A    between atoms: _155  and  _158
REMARK   65  A    between atoms: _161  and  _163
REMARK   66  A    between atoms: _163  and  _164
REMARK   67  A    between atoms: _163  and  _166
REMARK   68  A    between atoms: _166  and  _167
REMARK   69  A    between atoms: _172  and  _173
REMARK   70  A    between atoms: _175  and  _177
REMARK   71  A    between atoms: _177  and  _178
REMARK   72  A    between atoms: _177  and  _180
REMARK   73  A    between atoms: _180  and  _181
REMARK   74  A    between atoms: _187  and  _189
REMARK   75  A    between atoms: _189  and  _190
REMARK   76  A    between atoms: _189  and  _192
REMARK   77  A    between atoms: _195  and  _197
REMARK   78  A    between atoms: _197  and  _198
REMARK   79  A    between atoms: _197  and  _200
REMARK   80  A    between atoms: _200  and  _201
REMARK   81  A    between atoms: _205  and  _206
REMARK   82  A    between atoms: _211  and  _213
REMARK   83  A    between atoms: _213  and  _214
REMARK   84  A    between atoms: _213  and  _216
REMARK   85  A    between atoms: _216  and  _217
REMARK   86  A    between atoms: _217  and  _218
REMARK   87  A    between atoms: _218  and  _219
REMARK   88  A    between atoms: _228  and  _230
REMARK   89  A    between atoms: _230  and  _231
REMARK   90  A    between atoms: _230  and  _233
REMARK   91  A    between atoms: _233  and  _234
REMARK   92  A    between atoms: _239  and  _240
REMARK   93  A    between atoms: _242  and  _244
REMARK   94  A    between atoms: _244  and  _245
REMARK   95  A    between atoms: _244  and  _247
REMARK   96  A    between atoms: _250  and  _252
REMARK   97  A    between atoms: _252  and  _253
REMARK   98  A    between atoms: _256  and  _258
REMARK   99  A    between atoms: _258  and  _259
REMARK  100  A    between atoms: _258  and  _261
REMARK  101  A    between atoms: _261  and  _262
REMARK  102  A    between atoms: _265  and  _267
REMARK  103  A    between atoms: _267  and  _268
REMARK  104  A    between atoms: _271  and  _273
REMARK  105  A    between atoms: _273  and  _274
REMARK  106  A    between atoms: _273  and  _276
REMARK  107  A    between atoms: _276  and  _277
REMARK  108  A    between atoms: _280  and  _282
REMARK  109  A    between atoms: _282  and  _283
REMARK  110  A    between atoms: _282  and  _285
REMARK  111  A    between atoms: _285  and  _286
REMARK  112  A    between atoms: _296  and  _298
REMARK  113  A    between atoms: _298  and  _299
REMARK  114  A    between atoms: _298  and  _301
REMARK  115  A    between atoms: _301  and  _302
REMARK  116  A    between atoms: _304  and  _306
REMARK  117  A    between atoms: _306  and  _307
REMARK  118  A    between atoms: _309  and  _311
REMARK  119  A    between atoms: _311  and  _312
REMARK                            x       y       z     vdW  Elec       q    Type
REMARK                         _______ _______ _______ _____ _____    ______ ____
ROOT
ATOM      1  CA  GLU A   1       7.134  74.452  26.627  0.00  0.00    +0.134 C 
ENDROOT
BRANCH   1   2
ATOM      2  N   GLU A   1       7.602  74.404  25.259  0.00  0.00    -0.239 NA
ATOM      3  H   GLU A   1       6.902  74.510  24.497  0.00  0.00    +0.142 HD
ENDBRANCH   1   2
BRANCH   1   4
ATOM      4  C   GLU A   1       5.838  73.693  26.740  0.00  0.00    +0.224 C 
ATOM      5  O   GLU A   1       5.016  73.716  25.849  0.00  0.00    -0.287 OA
ENDBRANCH   1   4
BRANCH   1   6
ATOM      6  CB  GLU A   1       6.892  75.916  27.080  0.00  0.00    +0.037 C 
BRANCH   6   7
ATOM      7  CG  GLU A   1       8.040  76.837  26.949  0.00  0.00    +0.116 C 
BRANCH   7   8
ATOM      8  CD  GLU A   1       7.711  78.267  27.319  0.00  0.00    +0.365 C 
ATOM      9  OE2 GLU A   1       6.498  78.579  27.531  0.00  0.00    -0.246 OA
ATOM     10  OE1 GLU A   1       8.684  79.090  27.382  0.00  0.00    -0.246 OA
ENDBRANCH   7   8
ENDBRANCH   6   7
ENDBRANCH   1   6
TORSDOF 5
REMARK  Name = ../refined-set-2016/3sk2/3sk2_pocket.pdb
REMARK  119 active torsions:
REMARK  status: ('A' for Active; 'I' for Inactive)
REMARK    1  A    between atoms: _1  and  _3
REMARK    2  A    between atoms: _3  and  _4
REMARK    3  A    between atoms: _3  and  _6
REMARK    4  A    between atoms: _6  and  _7
REMARK    5  A    between atoms: _7  and  _8
REMARK    6  A    between atoms: _11  and  _13
REMARK    7  A    between atoms: _13  and  _14
REMARK    8  A    between atoms: _13  and  _16
REMARK    9  A    between atoms: _16  and  _17
REMARK   10  A    between atoms: _17  and  _18
REMARK   11  A    between atoms: _20  and  _22
REMARK   12  A    between atoms: _22  and  _23
REMARK   13  A    between atoms: _22  and  _25
REMARK   14  A    between atoms: _25  and  _26
REMARK   15  A    between atoms: _31  and  _32
REMARK   16  A    between atoms: _34  and  _36
REMARK   17  A    between atoms: _36  and  _37
REMARK   18  A    between atoms: _36  and  _39
REMARK   19  A    between atoms: _39  and  _40
REMARK   20  A    between atoms: _43  and  _45
REMARK   21  A    between atoms: _45  and  _46
REMARK   22  A    between atoms: _45  and  _48
REMARK   23  A    between atoms: _51  and  _53
REMARK   24  A    between atoms: _53  and  _54
REMARK   25  A    between atoms: _53  and  _56
REMARK   26  A    between atoms: _56  and  _57
REMARK   27  A    between atoms: _63  and  _65
REMARK   28  A    between atoms: _65  and  _66
REMARK   29  A    between atoms: _68  and  _70
REMARK   30  A    between atoms: _70  and  _71
REMARK   31  A    between atoms: _70  and  _73
REMARK   32  A    between atoms: _73  and  _74
REMARK   33  A    between atoms: _77  and  _79
REMARK   34  A    between atoms: _79  and  _80
REMARK   35  A    between atoms: _79  and  _82
REMARK   36  A    between atoms: _82  and  _83
REMARK   37  A    between atoms: _83  and  _84
REMARK   38  A    between atoms: _84  and  _85
REMARK   39  A    between atoms: _94  and  _96
REMARK   40  A    between atoms: _96  and  _97
REMARK   41  A    between atoms: _96  and  _99
REMARK   42  A    between atoms: _102  and  _104
REMARK   43  A    between atoms: _104  and  _105
REMARK   44  A    between atoms: _104  and  _107
REMARK   45  A    between atoms: _110  and  _111
REMARK   46  A    between atoms: _116  and  _118
REMARK   47  A    between atoms: _118  and  _119
REMARK   48  A    between atoms: _118  and  _121
REMARK   49  A    between atoms: _121  and  _122
REMARK   50  A    between atoms: _125  and  _127
REMARK   51  A    between atoms: _127  and  _128
REMARK   52  A    between atoms: _127  and  _130
REMARK   53  A    between atoms: _130  and  _131
REMARK   54  A    between atoms: _135  and  _137
REMARK   55  A    between atoms: _137  and  _138
REMARK   56  A    between atoms: _137  and  _140
REMARK   57  A    between atoms: _140  and  _141
REMARK   58  A    between atoms: _144  and  _146
REMARK   59  A    between atoms: _146  and  _147
REMARK   60  A    between atoms: _146  and  _149
REMARK   61  A    between atoms: _149  and  _150
REMARK   62  A    between atoms: _153  and  _155
REMARK   63  A    between atoms: _155  and  _156
REMARK   64  A    between atoms: _155  and  _158
REMARK   65  A    between atoms: _161  and  _163
REMARK   66  A    between atoms: _163  and  _164
REMARK   67  A    between atoms: _163  and  _166
REMARK   68  A    between atoms: _166  and  _167
REMARK   69  A    between atoms: _172  and  _173
REMARK   70  A    between atoms: _175  and  _177
REMARK   71  A    between atoms: _177  and  _178
REMARK   72  A    between atoms: _177  and  _180
REMARK   73  A    between atoms: _180  and  _181
REMARK   74  A    between atoms: _187  and  _189
REMARK   75  A    between atoms: _189  and  _190
REMARK   76  A    between atoms: _189  and  _192
REMARK   77  A    between atoms: _195  and  _197
REMARK   78  A    between atoms: _197  and  _198
REMARK   79  A    between atoms: _197  and  _200
REMARK   80  A    between atoms: _200  and  _201
REMARK   81  A    between atoms: _205  and  _206
REMARK   82  A    between atoms: _211  and  _213
REMARK   83  A    between atoms: _213  and  _214
REMARK   84  A    between atoms: _213  and  _216
REMARK   85  A    between atoms: _216  and  _217
REMARK   86  A    between atoms: _217  and  _218
REMARK   87  A    between atoms: _218  and  _219
REMARK   88  A    between atoms: _228  and  _230
REMARK   89  A    between atoms: _230  and  _231
REMARK   90  A    between atoms: _230  and  _233
REMARK   91  A    between atoms: _233  and  _234
REMARK   92  A    between atoms: _239  and  _240
REMARK   93  A    between atoms: _242  and  _244
REMARK   94  A    between atoms: _244  and  _245
REMARK   95  A    between atoms: _244  and  _247
REMARK   96  A    between atoms: _250  and  _252
REMARK   97  A    between atoms: _252  and  _253
REMARK   98  A    between atoms: _256  and  _258
REMARK   99  A    between atoms: _258  and  _259
REMARK  100  A    between atoms: _258  and  _261
REMARK  101  A    between atoms: _261  and  _262
REMARK  102  A    between atoms: _265  and  _267
REMARK  103  A    between atoms: _267  and  _268
REMARK  104  A    between atoms: _271  and  _273
REMARK  105  A    between atoms: _273  and  _274
REMARK  106  A    between atoms: _273  and  _276
REMARK  107  A    between atoms: _276  and  _277
REMARK  108  A    between atoms: _280  and  _282
REMARK  109  A    between atoms: _282  and  _283
REMARK  110  A    between atoms: _282  and  _285
REMARK  111  A    between atoms: _285  and  _286
REMARK  112  A    between atoms: _296  and  _298
REMARK  113  A    between atoms: _298  and  _299
REMARK  114  A    between atoms: _298  and  _301
REMARK  115  A    between atoms: _301  and  _302
REMARK  116  A    between atoms: _304  and  _306
REMARK  117  A    between atoms: _306  and  _307
REMARK  118  A    between atoms: _309  and  _311
REMARK  119  A    between atoms: _311  and  _312
REMARK                            x       y       z     vdW  Elec       q    Type
REMARK                         _______ _______ _______ _____ _____    ______ ____
ROOT
ATOM      1  CA  MET A   1      -3.180  78.111  31.662  0.00  0.00    +0.134 C 
ENDROOT
BRANCH   1   2
ATOM      2  N   MET A   1      -2.449  76.822  31.650  0.00  0.00    -0.239 NA
ATOM      3  H   MET A   1      -2.869  76.010  31.153  0.00  0.00    +0.142 HD
ENDBRANCH   1   2
BRANCH   1   4
ATOM      4  C   MET A   1      -4.226  78.067  32.760  0.00  0.00    +0.224 C 
ATOM      5  O   MET A   1      -5.092  77.140  32.763  0.00  0.00    -0.287 OA
ENDBRANCH   1   4
BRANCH   1   6
ATOM      6  CB  MET A   1      -3.851  78.384  30.310  0.00  0.00    +0.037 C 
BRANCH   6   7
ATOM      7  CG  MET A   1      -2.898  78.327  29.182  0.00  0.00    +0.059 C 
BRANCH   7   8
ATOM      8  SD  MET A   1      -3.600  78.722  27.558  0.00  0.00    -0.139 S 
ATOM      9  CE  MET A   1      -4.726  77.384  27.290  0.00  0.00    +0.069 C 
ENDBRANCH   7   8
ENDBRANCH   6   7
ENDBRANCH   1   6
TORSDOF 5
REMARK  Name = ../refined-set-2016/3sk2/3sk2_pocket.pdb
REMARK  119 active torsions:
REMARK  status: ('A' for Active; 'I' for Inactive)
REMARK    1  A    between atoms: _1  and  _3
REMARK    2  A    between atoms: _3  and  _4
REMARK    3  A    between atoms: _3  and  _6
REMARK    4  A    between atoms: _6  and  _7
REMARK    5  A    between atoms: _7  and  _8
REMARK    6  A    between atoms: _11  and  _13
REMARK    7  A    between atoms: _13  and  _14
REMARK    8  A    between atoms: _13  and  _16
REMARK    9  A    between atoms: _16  and  _17
REMARK   10  A    between atoms: _17  and  _18
REMARK   11  A    between atoms: _20  and  _22
REMARK   12  A    between atoms: _22  and  _23
REMARK   13  A    between atoms: _22  and  _25
REMARK   14  A    between atoms: _25  and  _26
REMARK   15  A    between atoms: _31  and  _32
REMARK   16  A    between atoms: _34  and  _36
REMARK   17  A    between atoms: _36  and  _37
REMARK   18  A    between atoms: _36  and  _39
REMARK   19  A    between atoms: _39  and  _40
REMARK   20  A    between atoms: _43  and  _45
REMARK   21  A    between atoms: _45  and  _46
REMARK   22  A    between atoms: _45  and  _48
REMARK   23  A    between atoms: _51  and  _53
REMARK   24  A    between atoms: _53  and  _54
REMARK   25  A    between atoms: _53  and  _56
REMARK   26  A    between atoms: _56  and  _57
REMARK   27  A    between atoms: _63  and  _65
REMARK   28  A    between atoms: _65  and  _66
REMARK   29  A    between atoms: _68  and  _70
REMARK   30  A    between atoms: _70  and  _71
REMARK   31  A    between atoms: _70  and  _73
REMARK   32  A    between atoms: _73  and  _74
REMARK   33  A    between atoms: _77  and  _79
REMARK   34  A    between atoms: _79  and  _80
REMARK   35  A    between atoms: _79  and  _82
REMARK   36  A    between atoms: _82  and  _83
REMARK   37  A    between atoms: _83  and  _84
REMARK   38  A    between atoms: _84  and  _85
REMARK   39  A    between atoms: _94  and  _96
REMARK   40  A    between atoms: _96  and  _97
REMARK   41  A    between atoms: _96  and  _99
REMARK   42  A    between atoms: _102  and  _104
REMARK   43  A    between atoms: _104  and  _105
REMARK   44  A    between atoms: _104  and  _107
REMARK   45  A    between atoms: _110  and  _111
REMARK   46  A    between atoms: _116  and  _118
REMARK   47  A    between atoms: _118  and  _119
REMARK   48  A    between atoms: _118  and  _121
REMARK   49  A    between atoms: _121  and  _122
REMARK   50  A    between atoms: _125  and  _127
REMARK   51  A    between atoms: _127  and  _128
REMARK   52  A    between atoms: _127  and  _130
REMARK   53  A    between atoms: _130  and  _131
REMARK   54  A    between atoms: _135  and  _137
REMARK   55  A    between atoms: _137  and  _138
REMARK   56  A    between atoms: _137  and  _140
REMARK   57  A    between atoms: _140  and  _141
REMARK   58  A    between atoms: _144  and  _146
REMARK   59  A    between atoms: _146  and  _147
REMARK   60  A    between atoms: _146  and  _149
REMARK   61  A    between atoms: _149  and  _150
REMARK   62  A    between atoms: _153  and  _155
REMARK   63  A    between atoms: _155  and  _156
REMARK   64  A    between atoms: _155  and  _158
REMARK   65  A    between atoms: _161  and  _163
REMARK   66  A    between atoms: _163  and  _164
REMARK   67  A    between atoms: _163  and  _166
REMARK   68  A    between atoms: _166  and  _167
REMARK   69  A    between atoms: _172  and  _173
REMARK   70  A    between atoms: _175  and  _177
REMARK   71  A    between atoms: _177  and  _178
REMARK   72  A    between atoms: _177  and  _180
REMARK   73  A    between atoms: _180  and  _181
REMARK   74  A    between atoms: _187  and  _189
REMARK   75  A    between atoms: _189  and  _190
REMARK   76  A    between atoms: _189  and  _192
REMARK   77  A    between atoms: _195  and  _197
REMARK   78  A    between atoms: _197  and  _198
REMARK   79  A    between atoms: _197  and  _200
REMARK   80  A    between atoms: _200  and  _201
REMARK   81  A    between atoms: _205  and  _206
REMARK   82  A    between atoms: _211  and  _213
REMARK   83  A    between atoms: _213  and  _214
REMARK   84  A    between atoms: _213  and  _216
REMARK   85  A    between atoms: _216  and  _217
REMARK   86  A    between atoms: _217  and  _218
REMARK   87  A    between atoms: _218  and  _219
REMARK   88  A    between atoms: _228  and  _230
REMARK   89  A    between atoms: _230  and  _231
REMARK   90  A    between atoms: _230  and  _233
REMARK   91  A    between atoms: _233  and  _234
REMARK   92  A    between atoms: _239  and  _240
REMARK   93  A    between atoms: _242  and  _244
REMARK   94  A    between atoms: _244  and  _245
REMARK   95  A    between atoms: _244  and  _247
REMARK   96  A    between atoms: _250  and  _252
REMARK   97  A    between atoms: _252  and  _253
REMARK   98  A    between atoms: _256  and  _258
REMARK   99  A    between atoms: _258  and  _259
REMARK  100  A    between atoms: _258  and  _261
REMARK  101  A    between atoms: _261  and  _262
REMARK  102  A    between atoms: _265  and  _267
REMARK  103  A    between atoms: _267  and  _268
REMARK  104  A    between atoms: _271  and  _273
REMARK  105  A    between atoms: _273  and  _274
REMARK  106  A    between atoms: _273  and  _276
REMARK  107  A    between atoms: _276  and  _277
REMARK  108  A    between atoms: _280  and  _282
REMARK  109  A    between atoms: _282  and  _283
REMARK  110  A    between atoms: _282  and  _285
REMARK  111  A    between atoms: _285  and  _286
REMARK  112  A    between atoms: _296  and  _298
REMARK  113  A    between atoms: _298  and  _299
REMARK  114  A    between atoms: _298  and  _301
REMARK  115  A    between atoms: _301  and  _302
REMARK  116  A    between atoms: _304  and  _306
REMARK  117  A    between atoms: _306  and  _307
REMARK  118  A    between atoms: _309  and  _311
REMARK  119  A    between atoms: _311  and  _312
REMARK                            x       y       z     vdW  Elec       q    Type
REMARK                         _______ _______ _______ _____ _____    ______ ____
ROOT
ATOM      1  CG  TYR A   1       8.174  87.168  35.243  0.00  0.00    -0.020 A 
ATOM      2  CD2 TYR A   1       8.328  85.785  35.224  0.00  0.00    -0.001 A 
ATOM      3  CE2 TYR A   1       8.455  84.985  33.967  0.00  0.00    +0.036 A 
ATOM      4  CZ  TYR A   1       8.445  85.639  32.703  0.00  0.00    +0.134 A 
ATOM      5  CE1 TYR A   1       8.307  87.055  32.752  0.00  0.00    +0.036 A 
ATOM      6  CD1 TYR A   1       8.177  87.805  34.006  0.00  0.00    -0.001 A 
ENDROOT
BRANCH   4   7
ATOM      7  OH  TYR A   1       8.488  84.882  31.452  0.00  0.00    -0.506 OA
ATOM      8  HH  TYR A   1       8.473  85.510  30.687  0.00  0.00    +0.292 HD
ENDBRANCH   4   7
BRANCH   1   9
ATOM      9  CB  TYR A   1       8.019  87.927  36.608  0.00  0.00    +0.051 C 
BRANCH   9  10
ATOM     10  CA  TYR A   1       6.617  87.981  37.293  0.00  0.00    +0.137 C 
BRANCH  10  11
ATOM     11  N   TYR A   1       6.381  86.659  37.848  0.00  0.00    -0.239 NA
ATOM     12  H   TYR A   1       5.637  86.071  37.421  0.00  0.00    +0.142 HD
ENDBRANCH  10  11
BRANCH  10  13
ATOM     13  C   TYR A   1       5.506  88.301  36.319  0.00  0.00    +0.224 C 
ATOM     14  O   TYR A   1       4.797  87.341  35.903  0.00  0.00    -0.287 OA
ENDBRANCH  10  13
ENDBRANCH   9  10
ENDBRANCH   1   9
TORSDOF 5
REMARK  Name = ../refined-set-2016/3sk2/3sk2_pocket.pdb
REMARK  119 active torsions:
REMARK  status: ('A' for Active; 'I' for Inactive)
REMARK    1  A    between atoms: _1  and  _3
REMARK    2  A    between atoms: _3  and  _4
REMARK    3  A    between atoms: _3  and  _6
REMARK    4  A    between atoms: _6  and  _7
REMARK    5  A    between atoms: _7  and  _8
REMARK    6  A    between atoms: _11  and  _13
REMARK    7  A    between atoms: _13  and  _14
REMARK    8  A    between atoms: _13  and  _16
REMARK    9  A    between atoms: _16  and  _17
REMARK   10  A    between atoms: _17  and  _18
REMARK   11  A    between atoms: _20  and  _22
REMARK   12  A    between atoms: _22  and  _23
REMARK   13  A    between atoms: _22  and  _25
REMARK   14  A    between atoms: _25  and  _26
REMARK   15  A    between atoms: _31  and  _32
REMARK   16  A    between atoms: _34  and  _36
REMARK   17  A    between atoms: _36  and  _37
REMARK   18  A    between atoms: _36  and  _39
REMARK   19  A    between atoms: _39  and  _40
REMARK   20  A    between atoms: _43  and  _45
REMARK   21  A    between atoms: _45  and  _46
REMARK   22  A    between atoms: _45  and  _48
REMARK   23  A    between atoms: _51  and  _53
REMARK   24  A    between atoms: _53  and  _54
REMARK   25  A    between atoms: _53  and  _56
REMARK   26  A    between atoms: _56  and  _57
REMARK   27  A    between atoms: _63  and  _65
REMARK   28  A    between atoms: _65  and  _66
REMARK   29  A    between atoms: _68  and  _70
REMARK   30  A    between atoms: _70  and  _71
REMARK   31  A    between atoms: _70  and  _73
REMARK   32  A    between atoms: _73  and  _74
REMARK   33  A    between atoms: _77  and  _79
REMARK   34  A    between atoms: _79  and  _80
REMARK   35  A    between atoms: _79  and  _82
REMARK   36  A    between atoms: _82  and  _83
REMARK   37  A    between atoms: _83  and  _84
REMARK   38  A    between atoms: _84  and  _85
REMARK   39  A    between atoms: _94  and  _96
REMARK   40  A    between atoms: _96  and  _97
REMARK   41  A    between atoms: _96  and  _99
REMARK   42  A    between atoms: _102  and  _104
REMARK   43  A    between atoms: _104  and  _105
REMARK   44  A    between atoms: _104  and  _107
REMARK   45  A    between atoms: _110  and  _111
REMARK   46  A    between atoms: _116  and  _118
REMARK   47  A    between atoms: _118  and  _119
REMARK   48  A    between atoms: _118  and  _121
REMARK   49  A    between atoms: _121  and  _122
REMARK   50  A    between atoms: _125  and  _127
REMARK   51  A    between atoms: _127  and  _128
REMARK   52  A    between atoms: _127  and  _130
REMARK   53  A    between atoms: _130  and  _131
REMARK   54  A    between atoms: _135  and  _137
REMARK   55  A    between atoms: _137  and  _138
REMARK   56  A    between atoms: _137  and  _140
REMARK   57  A    between atoms: _140  and  _141
REMARK   58  A    between atoms: _144  and  _146
REMARK   59  A    between atoms: _146  and  _147
REMARK   60  A    between atoms: _146  and  _149
REMARK   61  A    between atoms: _149  and  _150
REMARK   62  A    between atoms: _153  and  _155
REMARK   63  A    between atoms: _155  and  _156
REMARK   64  A    between atoms: _155  and  _158
REMARK   65  A    between atoms: _161  and  _163
REMARK   66  A    between atoms: _163  and  _164
REMARK   67  A    between atoms: _163  and  _166
REMARK   68  A    between atoms: _166  and  _167
REMARK   69  A    between atoms: _172  and  _173
REMARK   70  A    between atoms: _175  and  _177
REMARK   71  A    between atoms: _177  and  _178
REMARK   72  A    between atoms: _177  and  _180
REMARK   73  A    between atoms: _180  and  _181
REMARK   74  A    between atoms: _187  and  _189
REMARK   75  A    between atoms: _189  and  _190
REMARK   76  A    between atoms: _189  and  _192
REMARK   77  A    between atoms: _195  and  _197
REMARK   78  A    between atoms: _197  and  _198
REMARK   79  A    between atoms: _197  and  _200
REMARK   80  A    between atoms: _200  and  _201
REMARK   81  A    between atoms: _205  and  _206
REMARK   82  A    between atoms: _211  and  _213
REMARK   83  A    between atoms: _213  and  _214
REMARK   84  A    between atoms: _213  and  _216
REMARK   85  A    between atoms: _216  and  _217
REMARK   86  A    between atoms: _217  and  _218
REMARK   87  A    between atoms: _218  and  _219
REMARK   88  A    between atoms: _228  and  _230
REMARK   89  A    between atoms: _230  and  _231
REMARK   90  A    between atoms: _230  and  _233
REMARK   91  A    between atoms: _233  and  _234
REMARK   92  A    between atoms: _239  and  _240
REMARK   93  A    between atoms: _242  and  _244
REMARK   94  A    between atoms: _244  and  _245
REMARK   95  A    between atoms: _244  and  _247
REMARK   96  A    between atoms: _250  and  _252
REMARK   97  A    between atoms: _252  and  _253
REMARK   98  A    between atoms: _256  and  _258
REMARK   99  A    between atoms: _258  and  _259
REMARK  100  A    between atoms: _258  and  _261
REMARK  101  A    between atoms: _261  and  _262
REMARK  102  A    between atoms: _265  and  _267
REMARK  103  A    between atoms: _267  and  _268
REMARK  104  A    between atoms: _271  and  _273
REMARK  105  A    between atoms: _273  and  _274
REMARK  106  A    between atoms: _273  and  _276
REMARK  107  A    between atoms: _276  and  _277
REMARK  108  A    between atoms: _280  and  _282
REMARK  109  A    between atoms: _282  and  _283
REMARK  110  A    between atoms: _282  and  _285
REMARK  111  A    between atoms: _285  and  _286
REMARK  112  A    between atoms: _296  and  _298
REMARK  113  A    between atoms: _298  and  _299
REMARK  114  A    between atoms: _298  and  _301
REMARK  115  A    between atoms: _301  and  _302
REMARK  116  A    between atoms: _304  and  _306
REMARK  117  A    between atoms: _306  and  _307
REMARK  118  A    between atoms: _309  and  _311
REMARK  119  A    between atoms: _311  and  _312
REMARK                            x       y       z     vdW  Elec       q    Type
REMARK                         _______ _______ _______ _____ _____    ______ ____
ROOT
ATOM      1  C   VAL A   2       2.507  90.060  28.077  0.00  0.00    +0.241 C 
ATOM      2  N   PHE A   3       2.328  88.891  28.599  0.00  0.00    -0.297 N 
ATOM      3  H   PHE A   3       3.162  88.399  28.978  0.00  0.00    +0.150 HD
ATOM      4  O   VAL A   2       1.600  90.715  27.589  0.00  0.00    -0.273 OA
ENDROOT
BRANCH   1   5
ATOM      5  CA  VAL A   2       3.802  90.625  28.078  0.00  0.00    +0.148 C 
BRANCH   5   8
ATOM      6  C   ASP A   1       4.627  89.911  30.263  0.00  0.00    +0.239 C 
ATOM      7  O   ASP A   1       3.716  90.493  30.784  0.00  0.00    -0.274 OA
ATOM      8  N   VAL A   2       4.739  89.847  28.941  0.00  0.00    -0.297 N 
ATOM      9  H   VAL A   2       5.478  89.256  28.508  0.00  0.00    +0.150 HD
BRANCH   6  10
ATOM     10  CA  ASP A   1       5.570  89.049  31.119  0.00  0.00    +0.156 C 
BRANCH  10  11
ATOM     11  N   ASP A   1       5.088  89.012  32.514  0.00  0.00    -0.238 NA
ATOM     12  H   ASP A   1       4.579  88.152  32.803  0.00  0.00    +0.142 HD
ENDBRANCH  10  11
BRANCH  10  13
ATOM     13  CB  ASP A   1       5.806  87.612  30.576  0.00  0.00    +0.140 C 
BRANCH  13  14
ATOM     14  CG  ASP A   1       6.864  87.533  29.463  0.00  0.00    +0.367 C 
ATOM     15  OD2 ASP A   1       7.612  86.479  29.443  0.00  0.00    -0.246 OA
ATOM     16  OD1 ASP A   1       6.876  88.366  28.522  0.00  0.00    -0.246 OA
ENDBRANCH  13  14
ENDBRANCH  10  13
ENDBRANCH   6  10
ENDBRANCH   5   8
BRANCH   5  17
ATOM     17  CB  VAL A   2       4.240  90.830  26.721  0.00  0.00    +0.027 C 
ATOM     18  CG2 VAL A   2       5.512  91.727  26.794  0.00  0.00    +0.002 C 
ATOM     19  CG1 VAL A   2       4.409  89.600  26.013  0.00  0.00    +0.002 C 
ENDBRANCH   5  17
ENDBRANCH   1   5
BRANCH   2  20
ATOM     20  CA  PHE A   3       1.021  88.202  28.696  0.00  0.00    +0.153 C 
BRANCH  20  21
ATOM     21  C   PHE A   3       0.522  88.000  30.161  0.00  0.00    +0.241 C 
ATOM     22  N   GLY A   4       1.096  88.751  31.088  0.00  0.00    -0.296 N 
ATOM     23  H   GLY A   4       1.870  89.400  30.842  0.00  0.00    +0.150 HD
ATOM     24  O   PHE A   3      -0.286  87.072  30.494  0.00  0.00    -0.273 OA
BRANCH  22  25
ATOM     25  CA  GLY A   4       0.622  88.648  32.451  0.00  0.00    +0.163 C 
BRANCH  25  26
ATOM     26  C   GLY A   4       1.490  87.788  33.335  0.00  0.00    +0.229 C 
ATOM     27  O   GLY A   4       2.683  87.527  33.044  0.00  0.00    -0.286 OA
ENDBRANCH  25  26
ENDBRANCH  22  25
ENDBRANCH  20  21
BRANCH  20  28
ATOM     28  CB  PHE A   3       1.069  86.887  27.943  0.00  0.00    +0.055 C 
BRANCH  28  29
ATOM     29  CG  PHE A   3       2.278  86.058  28.297  0.00  0.00    -0.020 A 
ATOM     30  CD2 PHE A   3       2.295  85.168  29.378  0.00  0.00    -0.004 A 
ATOM     31  CE2 PHE A   3       3.414  84.480  29.695  0.00  0.00    -0.000 A 
ATOM     32  CZ  PHE A   3       4.541  84.580  28.960  0.00  0.00    -0.000 A 
ATOM     33  CE1 PHE A   3       4.570  85.444  27.896  0.00  0.00    -0.000 A 
ATOM     34  CD1 PHE A   3       3.421  86.163  27.588  0.00  0.00    -0.004 A 
ENDBRANCH  28  29
ENDBRANCH  20  28
ENDBRANCH   2  20
TORSDOF 13
REMARK  Name = ../refined-set-2016/3sk2/3sk2_pocket.pdb
REMARK  119 active torsions:
REMARK  status: ('A' for Active; 'I' for Inactive)
REMARK    1  A    between atoms: _1  and  _3
REMARK    2  A    between atoms: _3  and  _4
REMARK    3  A    between atoms: _3  and  _6
REMARK    4  A    between atoms: _6  and  _7
REMARK    5  A    between atoms: _7  and  _8
REMARK    6  A    between atoms: _11  and  _13
REMARK    7  A    between atoms: _13  and  _14
REMARK    8  A    between atoms: _13  and  _16
REMARK    9  A    between atoms: _16  and  _17
REMARK   10  A    between atoms: _17  and  _18
REMARK   11  A    between atoms: _20  and  _22
REMARK   12  A    between atoms: _22  and  _23
REMARK   13  A    between atoms: _22  and  _25
REMARK   14  A    between atoms: _25  and  _26
REMARK   15  A    between atoms: _31  and  _32
REMARK   16  A    between atoms: _34  and  _36
REMARK   17  A    between atoms: _36  and  _37
REMARK   18  A    between atoms: _36  and  _39
REMARK   19  A    between atoms: _39  and  _40
REMARK   20  A    between atoms: _43  and  _45
REMARK   21  A    between atoms: _45  and  _46
REMARK   22  A    between atoms: _45  and  _48
REMARK   23  A    between atoms: _51  and  _53
REMARK   24  A    between atoms: _53  and  _54
REMARK   25  A    between atoms: _53  and  _56
REMARK   26  A    between atoms: _56  and  _57
REMARK   27  A    between atoms: _63  and  _65
REMARK   28  A    between atoms: _65  and  _66
REMARK   29  A    between atoms: _68  and  _70
REMARK   30  A    between atoms: _70  and  _71
REMARK   31  A    between atoms: _70  and  _73
REMARK   32  A    between atoms: _73  and  _74
REMARK   33  A    between atoms: _77  and  _79
REMARK   34  A    between atoms: _79  and  _80
REMARK   35  A    between atoms: _79  and  _82
REMARK   36  A    between atoms: _82  and  _83
REMARK   37  A    between atoms: _83  and  _84
REMARK   38  A    between atoms: _84  and  _85
REMARK   39  A    between atoms: _94  and  _96
REMARK   40  A    between atoms: _96  and  _97
REMARK   41  A    between atoms: _96  and  _99
REMARK   42  A    between atoms: _102  and  _104
REMARK   43  A    between atoms: _104  and  _105
REMARK   44  A    between atoms: _104  and  _107
REMARK   45  A    between atoms: _110  and  _111
REMARK   46  A    between atoms: _116  and  _118
REMARK   47  A    between atoms: _118  and  _119
REMARK   48  A    between atoms: _118  and  _121
REMARK   49  A    between atoms: _121  and  _122
REMARK   50  A    between atoms: _125  and  _127
REMARK   51  A    between atoms: _127  and  _128
REMARK   52  A    between atoms: _127  and  _130
REMARK   53  A    between atoms: _130  and  _131
REMARK   54  A    between atoms: _135  and  _137
REMARK   55  A    between atoms: _137  and  _138
REMARK   56  A    between atoms: _137  and  _140
REMARK   57  A    between atoms: _140  and  _141
REMARK   58  A    between atoms: _144  and  _146
REMARK   59  A    between atoms: _146  and  _147
REMARK   60  A    between atoms: _146  and  _149
REMARK   61  A    between atoms: _149  and  _150
REMARK   62  A    between atoms: _153  and  _155
REMARK   63  A    between atoms: _155  and  _156
REMARK   64  A    between atoms: _155  and  _158
REMARK   65  A    between atoms: _161  and  _163
REMARK   66  A    between atoms: _163  and  _164
REMARK   67  A    between atoms: _163  and  _166
REMARK   68  A    between atoms: _166  and  _167
REMARK   69  A    between atoms: _172  and  _173
REMARK   70  A    between atoms: _175  and  _177
REMARK   71  A    between atoms: _177  and  _178
REMARK   72  A    between atoms: _177  and  _180
REMARK   73  A    between atoms: _180  and  _181
REMARK   74  A    between atoms: _187  and  _189
REMARK   75  A    between atoms: _189  and  _190
REMARK   76  A    between atoms: _189  and  _192
REMARK   77  A    between atoms: _195  and  _197
REMARK   78  A    between atoms: _197  and  _198
REMARK   79  A    between atoms: _197  and  _200
REMARK   80  A    between atoms: _200  and  _201
REMARK   81  A    between atoms: _205  and  _206
REMARK   82  A    between atoms: _211  and  _213
REMARK   83  A    between atoms: _213  and  _214
REMARK   84  A    between atoms: _213  and  _216
REMARK   85  A    between atoms: _216  and  _217
REMARK   86  A    between atoms: _217  and  _218
REMARK   87  A    between atoms: _218  and  _219
REMARK   88  A    between atoms: _228  and  _230
REMARK   89  A    between atoms: _230  and  _231
REMARK   90  A    between atoms: _230  and  _233
REMARK   91  A    between atoms: _233  and  _234
REMARK   92  A    between atoms: _239  and  _240
REMARK   93  A    between atoms: _242  and  _244
REMARK   94  A    between atoms: _244  and  _245
REMARK   95  A    between atoms: _244  and  _247
REMARK   96  A    between atoms: _250  and  _252
REMARK   97  A    between atoms: _252  and  _253
REMARK   98  A    between atoms: _256  and  _258
REMARK   99  A    between atoms: _258  and  _259
REMARK  100  A    between atoms: _258  and  _261
REMARK  101  A    between atoms: _261  and  _262
REMARK  102  A    between atoms: _265  and  _267
REMARK  103  A    between atoms: _267  and  _268
REMARK  104  A    between atoms: _271  and  _273
REMARK  105  A    between atoms: _273  and  _274
REMARK  106  A    between atoms: _273  and  _276
REMARK  107  A    between atoms: _276  and  _277
REMARK  108  A    between atoms: _280  and  _282
REMARK  109  A    between atoms: _282  and  _283
REMARK  110  A    between atoms: _282  and  _285
REMARK  111  A    between atoms: _285  and  _286
REMARK  112  A    between atoms: _296  and  _298
REMARK  113  A    between atoms: _298  and  _299
REMARK  114  A    between atoms: _298  and  _301
REMARK  115  A    between atoms: _301  and  _302
REMARK  116  A    between atoms: _304  and  _306
REMARK  117  A    between atoms: _306  and  _307
REMARK  118  A    between atoms: _309  and  _311
REMARK  119  A    between atoms: _311  and  _312
REMARK                            x       y       z     vdW  Elec       q    Type
REMARK                         _______ _______ _______ _____ _____    ______ ____
ROOT
ATOM      1  CA  THR A   1       3.926  83.631  34.740  0.00  0.00    +0.160 C 
ENDROOT
BRANCH   1   2
ATOM      2  N   THR A   1       3.373  84.948  35.262  0.00  0.00    -0.237 NA
ATOM      3  H   THR A   1       3.991  85.576  35.814  0.00  0.00    +0.142 HD
ENDBRANCH   1   2
BRANCH   1   4
ATOM      4  C   THR A   1       5.112  83.206  35.555  0.00  0.00    +0.227 C 
ATOM      5  O   THR A   1       5.781  84.020  36.190  0.00  0.00    -0.287 OA
ENDBRANCH   1   4
BRANCH   1   6
ATOM      6  CB  THR A   1       4.217  83.774  33.244  0.00  0.00    +0.134 C 
ATOM      7  CG2 THR A   1       5.392  84.653  32.918  0.00  0.00    +0.034 C 
BRANCH   6   8
ATOM      8  OG1 THR A   1       4.500  82.518  32.631  0.00  0.00    -0.383 OA
ATOM      9  HG1 THR A   1       3.721  81.917  32.738  0.00  0.00    +0.210 HD
ENDBRANCH   6   8
ENDBRANCH   1   6
TORSDOF 4
REMARK  Name = ../refined-set-2016/3sk2/3sk2_pocket.pdb
REMARK  119 active torsions:
REMARK  status: ('A' for Active; 'I' for Inactive)
REMARK    1  A    between atoms: _1  and  _3
REMARK    2  A    between atoms: _3  and  _4
REMARK    3  A    between atoms: _3  and  _6
REMARK    4  A    between atoms: _6  and  _7
REMARK    5  A    between atoms: _7  and  _8
REMARK    6  A    between atoms: _11  and  _13
REMARK    7  A    between atoms: _13  and  _14
REMARK    8  A    between atoms: _13  and  _16
REMARK    9  A    between atoms: _16  and  _17
REMARK   10  A    between atoms: _17  and  _18
REMARK   11  A    between atoms: _20  and  _22
REMARK   12  A    between atoms: _22  and  _23
REMARK   13  A    between atoms: _22  and  _25
REMARK   14  A    between atoms: _25  and  _26
REMARK   15  A    between atoms: _31  and  _32
REMARK   16  A    between atoms: _34  and  _36
REMARK   17  A    between atoms: _36  and  _37
REMARK   18  A    between atoms: _36  and  _39
REMARK   19  A    between atoms: _39  and  _40
REMARK   20  A    between atoms: _43  and  _45
REMARK   21  A    between atoms: _45  and  _46
REMARK   22  A    between atoms: _45  and  _48
REMARK   23  A    between atoms: _51  and  _53
REMARK   24  A    between atoms: _53  and  _54
REMARK   25  A    between atoms: _53  and  _56
REMARK   26  A    between atoms: _56  and  _57
REMARK   27  A    between atoms: _63  and  _65
REMARK   28  A    between atoms: _65  and  _66
REMARK   29  A    between atoms: _68  and  _70
REMARK   30  A    between atoms: _70  and  _71
REMARK   31  A    between atoms: _70  and  _73
REMARK   32  A    between atoms: _73  and  _74
REMARK   33  A    between atoms: _77  and  _79
REMARK   34  A    between atoms: _79  and  _80
REMARK   35  A    between atoms: _79  and  _82
REMARK   36  A    between atoms: _82  and  _83
REMARK   37  A    between atoms: _83  and  _84
REMARK   38  A    between atoms: _84  and  _85
REMARK   39  A    between atoms: _94  and  _96
REMARK   40  A    between atoms: _96  and  _97
REMARK   41  A    between atoms: _96  and  _99
REMARK   42  A    between atoms: _102  and  _104
REMARK   43  A    between atoms: _104  and  _105
REMARK   44  A    between atoms: _104  and  _107
REMARK   45  A    between atoms: _110  and  _111
REMARK   46  A    between atoms: _116  and  _118
REMARK   47  A    between atoms: _118  and  _119
REMARK   48  A    between atoms: _118  and  _121
REMARK   49  A    between atoms: _121  and  _122
REMARK   50  A    between atoms: _125  and  _127
REMARK   51  A    between atoms: _127  and  _128
REMARK   52  A    between atoms: _127  and  _130
REMARK   53  A    between atoms: _130  and  _131
REMARK   54  A    between atoms: _135  and  _137
REMARK   55  A    between atoms: _137  and  _138
REMARK   56  A    between atoms: _137  and  _140
REMARK   57  A    between atoms: _140  and  _141
REMARK   58  A    between atoms: _144  and  _146
REMARK   59  A    between atoms: _146  and  _147
REMARK   60  A    between atoms: _146  and  _149
REMARK   61  A    between atoms: _149  and  _150
REMARK   62  A    between atoms: _153  and  _155
REMARK   63  A    between atoms: _155  and  _156
REMARK   64  A    between atoms: _155  and  _158
REMARK   65  A    between atoms: _161  and  _163
REMARK   66  A    between atoms: _163  and  _164
REMARK   67  A    between atoms: _163  and  _166
REMARK   68  A    between atoms: _166  and  _167
REMARK   69  A    between atoms: _172  and  _173
REMARK   70  A    between atoms: _175  and  _177
REMARK   71  A    between atoms: _177  and  _178
REMARK   72  A    between atoms: _177  and  _180
REMARK   73  A    between atoms: _180  and  _181
REMARK   74  A    between atoms: _187  and  _189
REMARK   75  A    between atoms: _189  and  _190
REMARK   76  A    between atoms: _189  and  _192
REMARK   77  A    between atoms: _195  and  _197
REMARK   78  A    between atoms: _197  and  _198
REMARK   79  A    between atoms: _197  and  _200
REMARK   80  A    between atoms: _200  and  _201
REMARK   81  A    between atoms: _205  and  _206
REMARK   82  A    between atoms: _211  and  _213
REMARK   83  A    between atoms: _213  and  _214
REMARK   84  A    between atoms: _213  and  _216
REMARK   85  A    between atoms: _216  and  _217
REMARK   86  A    between atoms: _217  and  _218
REMARK   87  A    between atoms: _218  and  _219
REMARK   88  A    between atoms: _228  and  _230
REMARK   89  A    between atoms: _230  and  _231
REMARK   90  A    between atoms: _230  and  _233
REMARK   91  A    between atoms: _233  and  _234
REMARK   92  A    between atoms: _239  and  _240
REMARK   93  A    between atoms: _242  and  _244
REMARK   94  A    between atoms: _244  and  _245
REMARK   95  A    between atoms: _244  and  _247
REMARK   96  A    between atoms: _250  and  _252
REMARK   97  A    between atoms: _252  and  _253
REMARK   98  A    between atoms: _256  and  _258
REMARK   99  A    between atoms: _258  and  _259
REMARK  100  A    between atoms: _258  and  _261
REMARK  101  A    between atoms: _261  and  _262
REMARK  102  A    between atoms: _265  and  _267
REMARK  103  A    between atoms: _267  and  _268
REMARK  104  A    between atoms: _271  and  _273
REMARK  105  A    between atoms: _273  and  _274
REMARK  106  A    between atoms: _273  and  _276
REMARK  107  A    between atoms: _276  and  _277
REMARK  108  A    between atoms: _280  and  _282
REMARK  109  A    between atoms: _282  and  _283
REMARK  110  A    between atoms: _282  and  _285
REMARK  111  A    between atoms: _285  and  _286
REMARK  112  A    between atoms: _296  and  _298
REMARK  113  A    between atoms: _298  and  _299
REMARK  114  A    between atoms: _298  and  _301
REMARK  115  A    between atoms: _301  and  _302
REMARK  116  A    between atoms: _304  and  _306
REMARK  117  A    between atoms: _306  and  _307
REMARK  118  A    between atoms: _309  and  _311
REMARK  119  A    between atoms: _311  and  _312
REMARK                            x       y       z     vdW  Elec       q    Type
REMARK                         _______ _______ _______ _____ _____    ______ ____
ROOT
ATOM      1  CA  CYS A   3       0.368  81.473  32.805  0.00  0.00    +0.161 C 
ENDROOT
BRANCH   1   2
ATOM      2  C   CYS A   3      -1.138  81.613  32.882  0.00  0.00    +0.245 C 
ATOM      3  O   CYS A   3      -1.837  80.655  33.173  0.00  0.00    -0.273 OA
ATOM      4  N   PRO A   4      -1.660  82.816  32.566  0.00  0.00    -0.272 N 
ATOM      5  CA  PRO A   4      -3.133  82.991  32.669  0.00  0.00    +0.152 C 
ATOM      6  CB  PRO A   4      -3.335  84.430  33.161  0.00  0.00    +0.031 C 
ATOM      7  CG  PRO A   4      -1.980  85.012  33.150  0.00  0.00    +0.024 C 
ATOM      8  CD  PRO A   4      -1.008  84.098  32.420  0.00  0.00    +0.094 C 
BRANCH   5   9
ATOM      9  C   PRO A   4      -3.901  82.737  31.319  0.00  0.00    +0.241 C 
ATOM     10  N   LEU A   5      -5.158  82.236  31.344  0.00  0.00    -0.297 N 
ATOM     11  H   LEU A   5      -5.561  81.936  32.255  0.00  0.00    +0.150 HD
ATOM     12  O   PRO A   4      -3.282  82.958  30.273  0.00  0.00    -0.273 OA
BRANCH  10  13
ATOM     13  CA  LEU A   5      -5.972  82.101  30.129  0.00  0.00    +0.149 C 
BRANCH  13  14
ATOM     14  C   LEU A   5      -6.090  83.459  29.487  0.00  0.00    +0.241 C 
ATOM     15  N   ASP A   6      -6.371  84.444  30.356  0.00  0.00    -0.295 N 
ATOM     16  H   ASP A   6      -6.332  84.171  31.359  0.00  0.00    +0.150 HD
ATOM     17  O   LEU A   5      -6.023  83.608  28.236  0.00  0.00    -0.273 OA
BRANCH  15  18
ATOM     18  CA  ASP A   6      -6.718  85.819  30.112  0.00  0.00    +0.187 C 
BRANCH  18  19
ATOM     19  C   ASP A   6      -5.724  86.727  30.832  0.00  0.00    +0.383 C 
ATOM     20  OXT ASP A   6      -6.103  87.444  31.796  0.00  0.00    -0.244 OA
ATOM     21  O   ASP A   6      -4.552  86.776  30.458  0.00  0.00    -0.244 OA
ENDBRANCH  18  19
BRANCH  18  22
ATOM     22  CB  ASP A   6      -8.102  86.078  30.745  0.00  0.00    +0.145 C 
BRANCH  22  23
ATOM     23  CG  ASP A   6      -8.284  85.308  32.108  0.00  0.00    +0.367 C 
ATOM     24  OD2 ASP A   6      -7.356  85.353  32.966  0.00  0.00    -0.246 OA
ATOM     25  OD1 ASP A   6      -9.328  84.629  32.305  0.00  0.00    -0.246 OA
ENDBRANCH  22  23
ENDBRANCH  18  22
ENDBRANCH  15  18
ENDBRANCH  13  14
BRANCH  13  26
ATOM     26  CB  LEU A   5      -7.345  81.554  30.429  0.00  0.00    +0.029 C 
BRANCH  26  27
ATOM     27  CG  LEU A   5      -7.389  80.057  30.632  0.00  0.00    +0.002 C 
ATOM     28  CD2 LEU A   5      -8.720  79.665  31.228  0.00  0.00    +0.000 C 
ATOM     29  CD1 LEU A   5      -7.187  79.378  29.262  0.00  0.00    +0.000 C 
ENDBRANCH  26  27
ENDBRANCH  13  26
ENDBRANCH  10  13
ENDBRANCH   5   9
ENDBRANCH   1   2
BRANCH   1  32
ATOM     30  C   VAL A   2       1.908  79.931  33.881  0.00  0.00    +0.241 C 
ATOM     31  O   VAL A   2       2.776  80.788  34.038  0.00  0.00    -0.273 OA
ATOM     32  N   CYS A   3       0.721  80.173  33.333  0.00  0.00    -0.296 N 
ATOM     33  H   CYS A   3       0.024  79.403  33.282  0.00  0.00    +0.150 HD
BRANCH  30  34
ATOM     34  CA  VAL A   2       2.208  78.471  34.267  0.00  0.00    +0.148 C 
BRANCH  34  36
ATOM     35  C   ARG A   1       3.731  77.416  32.645  0.00  0.00    +0.238 C 
ATOM     36  N   VAL A   2       3.536  78.142  33.733  0.00  0.00    -0.297 N 
ATOM     37  H   VAL A   2       4.371  78.500  34.239  0.00  0.00    +0.150 HD
ATOM     38  O   ARG A   1       2.814  76.799  32.085  0.00  0.00    -0.274 OA
BRANCH  35  39
ATOM     39  CA  ARG A   1       5.118  77.387  32.074  0.00  0.00    +0.145 C 
BRANCH  39  40
ATOM     40  N   ARG A   1       5.530  76.006  31.805  0.00  0.00    -0.238 NA
ATOM     41  H   ARG A   1       5.080  75.497  31.018  0.00  0.00    +0.142 HD
ENDBRANCH  39  40
BRANCH  39  42
ATOM     42  CB  ARG A   1       5.153  78.245  30.767  0.00  0.00    +0.030 C 
BRANCH  42  43
ATOM     43  CG  ARG A   1       4.684  79.668  31.057  0.00  0.00    +0.045 C 
BRANCH  43  44
ATOM     44  CD  ARG A   1       4.716  80.564  29.806  0.00  0.00    +0.174 C 
BRANCH  44  45
ATOM     45  NE  ARG A   1       6.025  80.676  29.216  0.00  0.00    -0.265 N 
ATOM     46  CZ  ARG A   1       7.014  81.502  29.635  0.00  0.00    +0.342 C 
ATOM     47  NH2 ARG A   1       6.811  82.366  30.637  0.00  0.00    -0.292 N 
ATOM     48 HH21 ARG A   1       5.884  82.410  31.106  0.00  0.00    +0.255 HD
ATOM     49 HH22 ARG A   1       7.581  82.993  30.947  0.00  0.00    +0.255 HD
ATOM     50  NH1 ARG A   1       8.193  81.483  29.008  0.00  0.00    -0.292 N 
ATOM     51 HH11 ARG A   1       8.959  82.113  29.321  0.00  0.00    +0.255 HD
ATOM     52 HH12 ARG A   1       8.345  80.838  28.206  0.00  0.00    +0.255 HD
ATOM     53  HE  ARG A   1       6.229  80.070  28.396  0.00  0.00    +0.259 HD
ENDBRANCH  44  45
ENDBRANCH  43  44
ENDBRANCH  42  43
ENDBRANCH  39  42
ENDBRANCH  35  39
ENDBRANCH  34  36
BRANCH  34  54
ATOM     54  CB  VAL A   2       2.133  78.202  35.781  0.00  0.00    +0.027 C 
ATOM     55  CG2 VAL A   2       0.778  78.599  36.297  0.00  0.00    +0.002 C 
ATOM     56  CG1 VAL A   2       2.483  76.770  36.080  0.00  0.00    +0.002 C 
ENDBRANCH  34  54
ENDBRANCH  30  34
ENDBRANCH   1  32
BRANCH   1  57
ATOM     57  CB  CYS A   3       0.935  81.644  31.397  0.00  0.00    +0.098 C 
ATOM     58  SG  CYS A   3       0.345  80.379  30.188  0.00  0.00    -0.080 S 
ENDBRANCH   1  57
TORSDOF 21
REMARK  Name = ../refined-set-2016/3sk2/3sk2_pocket.pdb
REMARK  119 active torsions:
REMARK  status: ('A' for Active; 'I' for Inactive)
REMARK    1  A    between atoms: _1  and  _3
REMARK    2  A    between atoms: _3  and  _4
REMARK    3  A    between atoms: _3  and  _6
REMARK    4  A    between atoms: _6  and  _7
REMARK    5  A    between atoms: _7  and  _8
REMARK    6  A    between atoms: _11  and  _13
REMARK    7  A    between atoms: _13  and  _14
REMARK    8  A    between atoms: _13  and  _16
REMARK    9  A    between atoms: _16  and  _17
REMARK   10  A    between atoms: _17  and  _18
REMARK   11  A    between atoms: _20  and  _22
REMARK   12  A    between atoms: _22  and  _23
REMARK   13  A    between atoms: _22  and  _25
REMARK   14  A    between atoms: _25  and  _26
REMARK   15  A    between atoms: _31  and  _32
REMARK   16  A    between atoms: _34  and  _36
REMARK   17  A    between atoms: _36  and  _37
REMARK   18  A    between atoms: _36  and  _39
REMARK   19  A    between atoms: _39  and  _40
REMARK   20  A    between atoms: _43  and  _45
REMARK   21  A    between atoms: _45  and  _46
REMARK   22  A    between atoms: _45  and  _48
REMARK   23  A    between atoms: _51  and  _53
REMARK   24  A    between atoms: _53  and  _54
REMARK   25  A    between atoms: _53  and  _56
REMARK   26  A    between atoms: _56  and  _57
REMARK   27  A    between atoms: _63  and  _65
REMARK   28  A    between atoms: _65  and  _66
REMARK   29  A    between atoms: _68  and  _70
REMARK   30  A    between atoms: _70  and  _71
REMARK   31  A    between atoms: _70  and  _73
REMARK   32  A    between atoms: _73  and  _74
REMARK   33  A    between atoms: _77  and  _79
REMARK   34  A    between atoms: _79  and  _80
REMARK   35  A    between atoms: _79  and  _82
REMARK   36  A    between atoms: _82  and  _83
REMARK   37  A    between atoms: _83  and  _84
REMARK   38  A    between atoms: _84  and  _85
REMARK   39  A    between atoms: _94  and  _96
REMARK   40  A    between atoms: _96  and  _97
REMARK   41  A    between atoms: _96  and  _99
REMARK   42  A    between atoms: _102  and  _104
REMARK   43  A    between atoms: _104  and  _105
REMARK   44  A    between atoms: _104  and  _107
REMARK   45  A    between atoms: _110  and  _111
REMARK   46  A    between atoms: _116  and  _118
REMARK   47  A    between atoms: _118  and  _119
REMARK   48  A    between atoms: _118  and  _121
REMARK   49  A    between atoms: _121  and  _122
REMARK   50  A    between atoms: _125  and  _127
REMARK   51  A    between atoms: _127  and  _128
REMARK   52  A    between atoms: _127  and  _130
REMARK   53  A    between atoms: _130  and  _131
REMARK   54  A    between atoms: _135  and  _137
REMARK   55  A    between atoms: _137  and  _138
REMARK   56  A    between atoms: _137  and  _140
REMARK   57  A    between atoms: _140  and  _141
REMARK   58  A    between atoms: _144  and  _146
REMARK   59  A    between atoms: _146  and  _147
REMARK   60  A    between atoms: _146  and  _149
REMARK   61  A    between atoms: _149  and  _150
REMARK   62  A    between atoms: _153  and  _155
REMARK   63  A    between atoms: _155  and  _156
REMARK   64  A    between atoms: _155  and  _158
REMARK   65  A    between atoms: _161  and  _163
REMARK   66  A    between atoms: _163  and  _164
REMARK   67  A    between atoms: _163  and  _166
REMARK   68  A    between atoms: _166  and  _167
REMARK   69  A    between atoms: _172  and  _173
REMARK   70  A    between atoms: _175  and  _177
REMARK   71  A    between atoms: _177  and  _178
REMARK   72  A    between atoms: _177  and  _180
REMARK   73  A    between atoms: _180  and  _181
REMARK   74  A    between atoms: _187  and  _189
REMARK   75  A    between atoms: _189  and  _190
REMARK   76  A    between atoms: _189  and  _192
REMARK   77  A    between atoms: _195  and  _197
REMARK   78  A    between atoms: _197  and  _198
REMARK   79  A    between atoms: _197  and  _200
REMARK   80  A    between atoms: _200  and  _201
REMARK   81  A    between atoms: _205  and  _206
REMARK   82  A    between atoms: _211  and  _213
REMARK   83  A    between atoms: _213  and  _214
REMARK   84  A    between atoms: _213  and  _216
REMARK   85  A    between atoms: _216  and  _217
REMARK   86  A    between atoms: _217  and  _218
REMARK   87  A    between atoms: _218  and  _219
REMARK   88  A    between atoms: _228  and  _230
REMARK   89  A    between atoms: _230  and  _231
REMARK   90  A    between atoms: _230  and  _233
REMARK   91  A    between atoms: _233  and  _234
REMARK   92  A    between atoms: _239  and  _240
REMARK   93  A    between atoms: _242  and  _244
REMARK   94  A    between atoms: _244  and  _245
REMARK   95  A    between atoms: _244  and  _247
REMARK   96  A    between atoms: _250  and  _252
REMARK   97  A    between atoms: _252  and  _253
REMARK   98  A    between atoms: _256  and  _258
REMARK   99  A    between atoms: _258  and  _259
REMARK  100  A    between atoms: _258  and  _261
REMARK  101  A    between atoms: _261  and  _262
REMARK  102  A    between atoms: _265  and  _267
REMARK  103  A    between atoms: _267  and  _268
REMARK  104  A    between atoms: _271  and  _273
REMARK  105  A    between atoms: _273  and  _274
REMARK  106  A    between atoms: _273  and  _276
REMARK  107  A    between atoms: _276  and  _277
REMARK  108  A    between atoms: _280  and  _282
REMARK  109  A    between atoms: _282  and  _283
REMARK  110  A    between atoms: _282  and  _285
REMARK  111  A    between atoms: _285  and  _286
REMARK  112  A    between atoms: _296  and  _298
REMARK  113  A    between atoms: _298  and  _299
REMARK  114  A    between atoms: _298  and  _301
REMARK  115  A    between atoms: _301  and  _302
REMARK  116  A    between atoms: _304  and  _306
REMARK  117  A    between atoms: _306  and  _307
REMARK  118  A    between atoms: _309  and  _311
REMARK  119  A    between atoms: _311  and  _312
REMARK                            x       y       z     vdW  Elec       q    Type
REMARK                         _______ _______ _______ _____ _____    ______ ____
ROOT
ATOM      1  CA  LEU A   1      -1.096  74.963  26.186  0.00  0.00    +0.133 C 
ENDROOT
BRANCH   1   2
ATOM      2  N   LEU A   1      -1.764  74.075  27.228  0.00  0.00    -0.239 NA
ATOM      3  H   LEU A   1      -1.184  73.705  28.008  0.00  0.00    +0.142 HD
ENDBRANCH   1   2
BRANCH   1   4
ATOM      4  C   LEU A   1       0.230  74.351  25.672  0.00  0.00    +0.224 C 
ATOM      5  O   LEU A   1       1.220  74.358  26.348  0.00  0.00    -0.287 OA
ENDBRANCH   1   4
BRANCH   1   6
ATOM      6  CB  LEU A   1      -0.804  76.359  26.788  0.00  0.00    +0.025 C 
BRANCH   6   7
ATOM      7  CG  LEU A   1       0.163  77.248  25.993  0.00  0.00    +0.002 C 
ATOM      8  CD2 LEU A   1       0.349  78.639  26.691  0.00  0.00    +0.000 C 
ATOM      9  CD1 LEU A   1      -0.325  77.324  24.577  0.00  0.00    +0.000 C 
ENDBRANCH   6   7
ENDBRANCH   1   6
TORSDOF 4
REMARK  Name = ../refined-set-2016/3sk2/3sk2_pocket.pdb
REMARK  119 active torsions:
REMARK  status: ('A' for Active; 'I' for Inactive)
REMARK    1  A    between atoms: _1  and  _3
REMARK    2  A    between atoms: _3  and  _4
REMARK    3  A    between atoms: _3  and  _6
REMARK    4  A    between atoms: _6  and  _7
REMARK    5  A    between atoms: _7  and  _8
REMARK    6  A    between atoms: _11  and  _13
REMARK    7  A    between atoms: _13  and  _14
REMARK    8  A    between atoms: _13  and  _16
REMARK    9  A    between atoms: _16  and  _17
REMARK   10  A    between atoms: _17  and  _18
REMARK   11  A    between atoms: _20  and  _22
REMARK   12  A    between atoms: _22  and  _23
REMARK   13  A    between atoms: _22  and  _25
REMARK   14  A    between atoms: _25  and  _26
REMARK   15  A    between atoms: _31  and  _32
REMARK   16  A    between atoms: _34  and  _36
REMARK   17  A    between atoms: _36  and  _37
REMARK   18  A    between atoms: _36  and  _39
REMARK   19  A    between atoms: _39  and  _40
REMARK   20  A    between atoms: _43  and  _45
REMARK   21  A    between atoms: _45  and  _46
REMARK   22  A    between atoms: _45  and  _48
REMARK   23  A    between atoms: _51  and  _53
REMARK   24  A    between atoms: _53  and  _54
REMARK   25  A    between atoms: _53  and  _56
REMARK   26  A    between atoms: _56  and  _57
REMARK   27  A    between atoms: _63  and  _65
REMARK   28  A    between atoms: _65  and  _66
REMARK   29  A    between atoms: _68  and  _70
REMARK   30  A    between atoms: _70  and  _71
REMARK   31  A    between atoms: _70  and  _73
REMARK   32  A    between atoms: _73  and  _74
REMARK   33  A    between atoms: _77  and  _79
REMARK   34  A    between atoms: _79  and  _80
REMARK   35  A    between atoms: _79  and  _82
REMARK   36  A    between atoms: _82  and  _83
REMARK   37  A    between atoms: _83  and  _84
REMARK   38  A    between atoms: _84  and  _85
REMARK   39  A    between atoms: _94  and  _96
REMARK   40  A    between atoms: _96  and  _97
REMARK   41  A    between atoms: _96  and  _99
REMARK   42  A    between atoms: _102  and  _104
REMARK   43  A    between atoms: _104  and  _105
REMARK   44  A    between atoms: _104  and  _107
REMARK   45  A    between atoms: _110  and  _111
REMARK   46  A    between atoms: _116  and  _118
REMARK   47  A    between atoms: _118  and  _119
REMARK   48  A    between atoms: _118  and  _121
REMARK   49  A    between atoms: _121  and  _122
REMARK   50  A    between atoms: _125  and  _127
REMARK   51  A    between atoms: _127  and  _128
REMARK   52  A    between atoms: _127  and  _130
REMARK   53  A    between atoms: _130  and  _131
REMARK   54  A    between atoms: _135  and  _137
REMARK   55  A    between atoms: _137  and  _138
REMARK   56  A    between atoms: _137  and  _140
REMARK   57  A    between atoms: _140  and  _141
REMARK   58  A    between atoms: _144  and  _146
REMARK   59  A    between atoms: _146  and  _147
REMARK   60  A    between atoms: _146  and  _149
REMARK   61  A    between atoms: _149  and  _150
REMARK   62  A    between atoms: _153  and  _155
REMARK   63  A    between atoms: _155  and  _156
REMARK   64  A    between atoms: _155  and  _158
REMARK   65  A    between atoms: _161  and  _163
REMARK   66  A    between atoms: _163  and  _164
REMARK   67  A    between atoms: _163  and  _166
REMARK   68  A    between atoms: _166  and  _167
REMARK   69  A    between atoms: _172  and  _173
REMARK   70  A    between atoms: _175  and  _177
REMARK   71  A    between atoms: _177  and  _178
REMARK   72  A    between atoms: _177  and  _180
REMARK   73  A    between atoms: _180  and  _181
REMARK   74  A    between atoms: _187  and  _189
REMARK   75  A    between atoms: _189  and  _190
REMARK   76  A    between atoms: _189  and  _192
REMARK   77  A    between atoms: _195  and  _197
REMARK   78  A    between atoms: _197  and  _198
REMARK   79  A    between atoms: _197  and  _200
REMARK   80  A    between atoms: _200  and  _201
REMARK   81  A    between atoms: _205  and  _206
REMARK   82  A    between atoms: _211  and  _213
REMARK   83  A    between atoms: _213  and  _214
REMARK   84  A    between atoms: _213  and  _216
REMARK   85  A    between atoms: _216  and  _217
REMARK   86  A    between atoms: _217  and  _218
REMARK   87  A    between atoms: _218  and  _219
REMARK   88  A    between atoms: _228  and  _230
REMARK   89  A    between atoms: _230  and  _231
REMARK   90  A    between atoms: _230  and  _233
REMARK   91  A    between atoms: _233  and  _234
REMARK   92  A    between atoms: _239  and  _240
REMARK   93  A    between atoms: _242  and  _244
REMARK   94  A    between atoms: _244  and  _245
REMARK   95  A    between atoms: _244  and  _247
REMARK   96  A    between atoms: _250  and  _252
REMARK   97  A    between atoms: _252  and  _253
REMARK   98  A    between atoms: _256  and  _258
REMARK   99  A    between atoms: _258  and  _259
REMARK  100  A    between atoms: _258  and  _261
REMARK  101  A    between atoms: _261  and  _262
REMARK  102  A    between atoms: _265  and  _267
REMARK  103  A    between atoms: _267  and  _268
REMARK  104  A    between atoms: _271  and  _273
REMARK  105  A    between atoms: _273  and  _274
REMARK  106  A    between atoms: _273  and  _276
REMARK  107  A    between atoms: _276  and  _277
REMARK  108  A    between atoms: _280  and  _282
REMARK  109  A    between atoms: _282  and  _283
REMARK  110  A    between atoms: _282  and  _285
REMARK  111  A    between atoms: _285  and  _286
REMARK  112  A    between atoms: _296  and  _298
REMARK  113  A    between atoms: _298  and  _299
REMARK  114  A    between atoms: _298  and  _301
REMARK  115  A    between atoms: _301  and  _302
REMARK  116  A    between atoms: _304  and  _306
REMARK  117  A    between atoms: _306  and  _307
REMARK  118  A    between atoms: _309  and  _311
REMARK  119  A    between atoms: _311  and  _312
REMARK                            x       y       z     vdW  Elec       q    Type
REMARK                         _______ _______ _______ _____ _____    ______ ____
ROOT
ATOM      1  C   VAL A   2       7.337  77.370  20.086  0.00  0.00    +0.241 C 
ATOM      2  N   TYR A   3       8.647  77.477  20.209  0.00  0.00    -0.298 N 
ATOM      3  H   TYR A   3       9.187  76.668  20.576  0.00  0.00    +0.150 HD
ATOM      4  O   VAL A   2       6.605  78.298  19.688  0.00  0.00    -0.273 OA
ENDROOT
BRANCH   1   5
ATOM      5  CA  VAL A   2       6.743  76.008  20.468  0.00  0.00    +0.148 C 
BRANCH   5   8
ATOM      6  C   LEU A   1       5.196  75.709  22.346  0.00  0.00    +0.238 C 
ATOM      7  O   LEU A   1       6.033  74.984  22.936  0.00  0.00    -0.274 OA
ATOM      8  N   VAL A   2       5.457  76.199  21.135  0.00  0.00    -0.297 N 
ATOM      9  H   VAL A   2       4.716  76.739  20.645  0.00  0.00    +0.150 HD
BRANCH   6  10
ATOM     10  CA  LEU A   1       3.860  76.035  22.955  0.00  0.00    +0.145 C 
BRANCH  10  11
ATOM     11  N   LEU A   1       3.279  74.833  23.507  0.00  0.00    -0.238 NA
ATOM     12  H   LEU A   1       3.785  74.320  24.257  0.00  0.00    +0.142 HD
ENDBRANCH  10  11
BRANCH  10  13
ATOM     13  CB  LEU A   1       4.012  77.046  24.063  0.00  0.00    +0.026 C 
BRANCH  13  14
ATOM     14  CG  LEU A   1       4.579  78.378  23.504  0.00  0.00    +0.002 C 
ATOM     15  CD2 LEU A   1       3.854  79.509  24.047  0.00  0.00    +0.000 C 
ATOM     16  CD1 LEU A   1       6.070  78.387  23.571  0.00  0.00    +0.000 C 
ENDBRANCH  13  14
ENDBRANCH  10  13
ENDBRANCH   6  10
ENDBRANCH   5   8
BRANCH   5  17
ATOM     17  CB  VAL A   2       6.685  75.020  19.289  0.00  0.00    +0.027 C 
ATOM     18  CG2 VAL A   2       6.176  73.683  19.747  0.00  0.00    +0.002 C 
ATOM     19  CG1 VAL A   2       5.861  75.559  18.105  0.00  0.00    +0.002 C 
ENDBRANCH   5  17
ENDBRANCH   1   5
BRANCH   2  20
ATOM     20  CA  TYR A   3       9.362  78.700  19.844  0.00  0.00    +0.141 C 
BRANCH  20  21
ATOM     21  C   TYR A   3       9.598  78.678  18.344  0.00  0.00    +0.227 C 
ATOM     22  O   TYR A   3      10.034  77.688  17.781  0.00  0.00    -0.286 OA
ENDBRANCH  20  21
BRANCH  20  23
ATOM     23  CB  TYR A   3      10.720  78.734  20.546  0.00  0.00    +0.054 C 
BRANCH  23  24
ATOM     24  CG  TYR A   3      10.715  78.718  22.052  0.00  0.00    -0.020 A 
ATOM     25  CD2 TYR A   3       9.571  78.960  22.822  0.00  0.00    -0.001 A 
ATOM     26  CE2 TYR A   3       9.622  78.930  24.202  0.00  0.00    +0.036 A 
ATOM     27  CZ  TYR A   3      10.803  78.650  24.867  0.00  0.00    +0.134 A 
ATOM     28  CE1 TYR A   3      11.932  78.421  24.111  0.00  0.00    +0.036 A 
ATOM     29  CD1 TYR A   3      11.890  78.448  22.751  0.00  0.00    -0.001 A 
BRANCH  27  30
ATOM     30  OH  TYR A   3      10.884  78.635  26.233  0.00  0.00    -0.506 OA
ATOM     31  HH  TYR A   3      11.521  79.332  26.532  0.00  0.00    +0.292 HD
ENDBRANCH  27  30
ENDBRANCH  23  24
ENDBRANCH  20  23
ENDBRANCH   2  20
TORSDOF 12
REMARK  Name = ../refined-set-2016/3sk2/3sk2_pocket.pdb
REMARK  119 active torsions:
REMARK  status: ('A' for Active; 'I' for Inactive)
REMARK    1  A    between atoms: _1  and  _3
REMARK    2  A    between atoms: _3  and  _4
REMARK    3  A    between atoms: _3  and  _6
REMARK    4  A    between atoms: _6  and  _7
REMARK    5  A    between atoms: _7  and  _8
REMARK    6  A    between atoms: _11  and  _13
REMARK    7  A    between atoms: _13  and  _14
REMARK    8  A    between atoms: _13  and  _16
REMARK    9  A    between atoms: _16  and  _17
REMARK   10  A    between atoms: _17  and  _18
REMARK   11  A    between atoms: _20  and  _22
REMARK   12  A    between atoms: _22  and  _23
REMARK   13  A    between atoms: _22  and  _25
REMARK   14  A    between atoms: _25  and  _26
REMARK   15  A    between atoms: _31  and  _32
REMARK   16  A    between atoms: _34  and  _36
REMARK   17  A    between atoms: _36  and  _37
REMARK   18  A    between atoms: _36  and  _39
REMARK   19  A    between atoms: _39  and  _40
REMARK   20  A    between atoms: _43  and  _45
REMARK   21  A    between atoms: _45  and  _46
REMARK   22  A    between atoms: _45  and  _48
REMARK   23  A    between atoms: _51  and  _53
REMARK   24  A    between atoms: _53  and  _54
REMARK   25  A    between atoms: _53  and  _56
REMARK   26  A    between atoms: _56  and  _57
REMARK   27  A    between atoms: _63  and  _65
REMARK   28  A    between atoms: _65  and  _66
REMARK   29  A    between atoms: _68  and  _70
REMARK   30  A    between atoms: _70  and  _71
REMARK   31  A    between atoms: _70  and  _73
REMARK   32  A    between atoms: _73  and  _74
REMARK   33  A    between atoms: _77  and  _79
REMARK   34  A    between atoms: _79  and  _80
REMARK   35  A    between atoms: _79  and  _82
REMARK   36  A    between atoms: _82  and  _83
REMARK   37  A    between atoms: _83  and  _84
REMARK   38  A    between atoms: _84  and  _85
REMARK   39  A    between atoms: _94  and  _96
REMARK   40  A    between atoms: _96  and  _97
REMARK   41  A    between atoms: _96  and  _99
REMARK   42  A    between atoms: _102  and  _104
REMARK   43  A    between atoms: _104  and  _105
REMARK   44  A    between atoms: _104  and  _107
REMARK   45  A    between atoms: _110  and  _111
REMARK   46  A    between atoms: _116  and  _118
REMARK   47  A    between atoms: _118  and  _119
REMARK   48  A    between atoms: _118  and  _121
REMARK   49  A    between atoms: _121  and  _122
REMARK   50  A    between atoms: _125  and  _127
REMARK   51  A    between atoms: _127  and  _128
REMARK   52  A    between atoms: _127  and  _130
REMARK   53  A    between atoms: _130  and  _131
REMARK   54  A    between atoms: _135  and  _137
REMARK   55  A    between atoms: _137  and  _138
REMARK   56  A    between atoms: _137  and  _140
REMARK   57  A    between atoms: _140  and  _141
REMARK   58  A    between atoms: _144  and  _146
REMARK   59  A    between atoms: _146  and  _147
REMARK   60  A    between atoms: _146  and  _149
REMARK   61  A    between atoms: _149  and  _150
REMARK   62  A    between atoms: _153  and  _155
REMARK   63  A    between atoms: _155  and  _156
REMARK   64  A    between atoms: _155  and  _158
REMARK   65  A    between atoms: _161  and  _163
REMARK   66  A    between atoms: _163  and  _164
REMARK   67  A    between atoms: _163  and  _166
REMARK   68  A    between atoms: _166  and  _167
REMARK   69  A    between atoms: _172  and  _173
REMARK   70  A    between atoms: _175  and  _177
REMARK   71  A    between atoms: _177  and  _178
REMARK   72  A    between atoms: _177  and  _180
REMARK   73  A    between atoms: _180  and  _181
REMARK   74  A    between atoms: _187  and  _189
REMARK   75  A    between atoms: _189  and  _190
REMARK   76  A    between atoms: _189  and  _192
REMARK   77  A    between atoms: _195  and  _197
REMARK   78  A    between atoms: _197  and  _198
REMARK   79  A    between atoms: _197  and  _200
REMARK   80  A    between atoms: _200  and  _201
REMARK   81  A    between atoms: _205  and  _206
REMARK   82  A    between atoms: _211  and  _213
REMARK   83  A    between atoms: _213  and  _214
REMARK   84  A    between atoms: _213  and  _216
REMARK   85  A    between atoms: _216  and  _217
REMARK   86  A    between atoms: _217  and  _218
REMARK   87  A    between atoms: _218  and  _219
REMARK   88  A    between atoms: _228  and  _230
REMARK   89  A    between atoms: _230  and  _231
REMARK   90  A    between atoms: _230  and  _233
REMARK   91  A    between atoms: _233  and  _234
REMARK   92  A    between atoms: _239  and  _240
REMARK   93  A    between atoms: _242  and  _244
REMARK   94  A    between atoms: _244  and  _245
REMARK   95  A    between atoms: _244  and  _247
REMARK   96  A    between atoms: _250  and  _252
REMARK   97  A    between atoms: _252  and  _253
REMARK   98  A    between atoms: _256  and  _258
REMARK   99  A    between atoms: _258  and  _259
REMARK  100  A    between atoms: _258  and  _261
REMARK  101  A    between atoms: _261  and  _262
REMARK  102  A    between atoms: _265  and  _267
REMARK  103  A    between atoms: _267  and  _268
REMARK  104  A    between atoms: _271  and  _273
REMARK  105  A    between atoms: _273  and  _274
REMARK  106  A    between atoms: _273  and  _276
REMARK  107  A    between atoms: _276  and  _277
REMARK  108  A    between atoms: _280  and  _282
REMARK  109  A    between atoms: _282  and  _283
REMARK  110  A    between atoms: _282  and  _285
REMARK  111  A    between atoms: _285  and  _286
REMARK  112  A    between atoms: _296  and  _298
REMARK  113  A    between atoms: _298  and  _299
REMARK  114  A    between atoms: _298  and  _301
REMARK  115  A    between atoms: _301  and  _302
REMARK  116  A    between atoms: _304  and  _306
REMARK  117  A    between atoms: _306  and  _307
REMARK  118  A    between atoms: _309  and  _311
REMARK  119  A    between atoms: _311  and  _312
REMARK                            x       y       z     vdW  Elec       q    Type
REMARK                         _______ _______ _______ _____ _____    ______ ____
ROOT
ATOM      1  CA  ARG A   5       4.681  87.567  18.275  0.00  0.00    +0.149 C 
ENDROOT
BRANCH   1   2
ATOM      2  C   ARG A   5       4.119  86.223  18.763  0.00  0.00    +0.241 C 
ATOM      3  O   ARG A   5       4.894  85.384  19.177  0.00  0.00    -0.273 OA
ATOM      4  N   TYR A   6       2.800  86.068  18.764  0.00  0.00    -0.297 N 
ATOM      5  H   TYR A   6       2.207  86.772  18.280  0.00  0.00    +0.150 HD
BRANCH   4   6
ATOM      6  CA  TYR A   6       2.149  84.914  19.439  0.00  0.00    +0.153 C 
BRANCH   6   7
ATOM      7  C   TYR A   6       0.862  84.610  18.701  0.00  0.00    +0.241 C 
ATOM      8  O   TYR A   6       0.008  85.492  18.531  0.00  0.00    -0.273 OA
ATOM      9  N   VAL A   7       0.707  83.370  18.264  0.00  0.00    -0.297 N 
ATOM     10  H   VAL A   7       1.469  82.685  18.442  0.00  0.00    +0.150 HD
BRANCH   9  11
ATOM     11  CA  VAL A   7      -0.480  82.915  17.544  0.00  0.00    +0.149 C 
BRANCH  11  12
ATOM     12  C   VAL A   7      -0.937  81.580  18.152  0.00  0.00    +0.241 C 
ATOM     13  N   ALA A   8      -2.213  81.444  18.431  0.00  0.00    -0.298 N 
ATOM     14  H   ALA A   8      -2.851  82.243  18.239  0.00  0.00    +0.150 HD
ATOM     15  O   VAL A   7      -0.095  80.683  18.333  0.00  0.00    -0.273 OA
BRANCH  13  16
ATOM     16  CA  ALA A   8      -2.779  80.221  19.000  0.00  0.00    +0.137 C 
ATOM     17  CB  ALA A   8      -3.424  80.494  20.349  0.00  0.00    +0.030 C 
BRANCH  16  18
ATOM     18  C   ALA A   8      -3.787  79.601  18.067  0.00  0.00    +0.227 C 
ATOM     19  O   ALA A   8      -4.643  80.291  17.484  0.00  0.00    -0.286 OA
ENDBRANCH  16  18
ENDBRANCH  13  16
ENDBRANCH  11  12
BRANCH  11  20
ATOM     20  CB  VAL A   7      -0.214  82.792  16.032  0.00  0.00    +0.027 C 
ATOM     21  CG2 VAL A   7       0.076  84.133  15.417  0.00  0.00    +0.002 C 
ATOM     22  CG1 VAL A   7      -1.375  82.142  15.327  0.00  0.00    +0.002 C 
ENDBRANCH  11  20
ENDBRANCH   9  11
ENDBRANCH   6   7
BRANCH   6  23
ATOM     23  CB  TYR A   6       1.856  85.268  20.907  0.00  0.00    +0.055 C 
BRANCH  23  24
ATOM     24  CG  TYR A   6       1.061  84.227  21.639  0.00  0.00    -0.020 A 
ATOM     25  CD2 TYR A   6       1.675  83.123  22.233  0.00  0.00    -0.001 A 
ATOM     26  CE2 TYR A   6       0.897  82.144  22.908  0.00  0.00    +0.036 A 
ATOM     27  CZ  TYR A   6      -0.475  82.274  22.956  0.00  0.00    +0.134 A 
ATOM     28  CE1 TYR A   6      -1.097  83.339  22.386  0.00  0.00    +0.036 A 
ATOM     29  CD1 TYR A   6      -0.319  84.301  21.721  0.00  0.00    -0.001 A 
BRANCH  27  30
ATOM     30  OH  TYR A   6      -1.182  81.283  23.626  0.00  0.00    -0.506 OA
ATOM     31  HH  TYR A   6      -1.674  81.686  24.385  0.00  0.00    +0.292 HD
ENDBRANCH  27  30
ENDBRANCH  23  24
ENDBRANCH   6  23
ENDBRANCH   4   6
ENDBRANCH   1   2
BRANCH   1  33
ATOM     32  C   PRO A   4       3.663  88.681  16.305  0.00  0.00    +0.241 C 
ATOM     33  N   ARG A   5       3.665  88.441  17.625  0.00  0.00    -0.297 N 
ATOM     34  H   ARG A   5       2.931  88.881  18.216  0.00  0.00    +0.150 HD
ATOM     35  O   PRO A   4       4.460  88.153  15.549  0.00  0.00    -0.273 OA
BRANCH  32  41
ATOM     36  C   THR A   3       0.585  88.692  16.648  0.00  0.00    +0.246 C 
ATOM     37  N   PRO A   4       1.362  89.769  16.547  0.00  0.00    -0.272 N 
ATOM     38  CD  PRO A   4       0.995  91.176  16.836  0.00  0.00    +0.094 C 
ATOM     39  CG  PRO A   4       1.846  91.885  15.787  0.00  0.00    +0.024 C 
ATOM     40  CB  PRO A   4       3.101  91.071  15.699  0.00  0.00    +0.031 C 
ATOM     41  CA  PRO A   4       2.589  89.662  15.736  0.00  0.00    +0.152 C 
ATOM     42  O   THR A   3       0.943  87.614  16.196  0.00  0.00    -0.273 OA
BRANCH  36  43
ATOM     43  CA  THR A   3      -0.729  88.783  17.381  0.00  0.00    +0.176 C 
BRANCH  43  45
ATOM     44  C   VAL A   2      -2.790  87.610  16.808  0.00  0.00    +0.241 C 
ATOM     45  N   THR A   3      -1.519  87.591  17.096  0.00  0.00    -0.295 N 
ATOM     46  H   THR A   3      -1.039  86.669  17.124  0.00  0.00    +0.150 HD
ATOM     47  O   VAL A   2      -3.481  88.632  16.865  0.00  0.00    -0.273 OA
BRANCH  44  48
ATOM     48  CA  VAL A   2      -3.407  86.305  16.302  0.00  0.00    +0.148 C 
BRANCH  48  51
ATOM     49  C   PHE A   1      -4.601  84.683  17.686  0.00  0.00    +0.239 C 
ATOM     50  O   PHE A   1      -3.716  83.837  17.611  0.00  0.00    -0.274 OA
ATOM     51  N   VAL A   2      -4.503  85.920  17.143  0.00  0.00    -0.297 N 
ATOM     52  H   VAL A   2      -5.250  86.616  17.343  0.00  0.00    +0.150 HD
BRANCH  49  53
ATOM     53  CA  PHE A   1      -5.883  84.403  18.418  0.00  0.00    +0.149 C 
BRANCH  53  54
ATOM     54  N   PHE A   1      -6.410  83.164  17.855  0.00  0.00    -0.238 NA
ATOM     55  H   PHE A   1      -5.735  82.469  17.477  0.00  0.00    +0.142 HD
ENDBRANCH  53  54
BRANCH  53  56
ATOM     56  CB  PHE A   1      -5.614  84.273  19.893  0.00  0.00    +0.053 C 
BRANCH  56  57
ATOM     57  CG  PHE A   1      -5.148  85.503  20.581  0.00  0.00    -0.020 A 
ATOM     58  CD2 PHE A   1      -3.949  85.480  21.294  0.00  0.00    -0.004 A 
ATOM     59  CE2 PHE A   1      -3.500  86.616  22.016  0.00  0.00    -0.000 A 
ATOM     60  CZ  PHE A   1      -4.238  87.771  21.964  0.00  0.00    -0.000 A 
ATOM     61  CE1 PHE A   1      -5.417  87.848  21.217  0.00  0.00    -0.000 A 
ATOM     62  CD1 PHE A   1      -5.857  86.704  20.506  0.00  0.00    -0.004 A 
ENDBRANCH  56  57
ENDBRANCH  53  56
ENDBRANCH  49  53
ENDBRANCH  48  51
BRANCH  48  63
ATOM     63  CB  VAL A   2      -3.810  86.431  14.796  0.00  0.00    +0.027 C 
ATOM     64  CG2 VAL A   2      -4.422  85.187  14.284  0.00  0.00    +0.002 C 
ATOM     65  CG1 VAL A   2      -2.628  86.799  13.944  0.00  0.00    +0.002 C 
ENDBRANCH  48  63
ENDBRANCH  44  48
ENDBRANCH  43  45
BRANCH  43  66
ATOM     66  CB  THR A   3      -0.517  88.947  18.903  0.00  0.00    +0.137 C 
ATOM     67  CG2 THR A   3      -1.714  88.618  19.726  0.00  0.00    +0.034 C 
BRANCH  66  68
ATOM     68  OG1 THR A   3       0.521  88.077  19.358  0.00  0.00    -0.382 OA
ATOM     69  HG1 THR A   3       0.271  87.138  19.166  0.00  0.00    +0.210 HD
ENDBRANCH  66  68
ENDBRANCH  43  66
ENDBRANCH  36  43
ENDBRANCH  32  41
ENDBRANCH   1  33
BRANCH   1  70
ATOM     70  CB  ARG A   5       5.348  88.270  19.506  0.00  0.00    +0.033 C 
BRANCH  70  71
ATOM     71  CG  ARG A   5       6.046  89.572  19.170  0.00  0.00    +0.045 C 
BRANCH  71  72
ATOM     72  CD  ARG A   5       6.340  90.394  20.398  0.00  0.00    +0.174 C 
BRANCH  72  73
ATOM     73  NE  ARG A   5       5.130  91.067  20.770  0.00  0.00    -0.265 N 
ATOM     74  CZ  ARG A   5       5.144  92.178  21.478  0.00  0.00    +0.342 C 
ATOM     75  NH2 ARG A   5       6.288  92.667  21.920  0.00  0.00    -0.292 N 
ATOM     76 HH21 ARG A   5       6.297  93.544  22.479  0.00  0.00    +0.255 HD
ATOM     77 HH22 ARG A   5       7.180  92.175  21.709  0.00  0.00    +0.255 HD
ATOM     78  NH1 ARG A   5       4.045  92.845  21.729  0.00  0.00    -0.292 N 
ATOM     79 HH11 ARG A   5       4.084  93.719  22.291  0.00  0.00    +0.255 HD
ATOM     80 HH12 ARG A   5       3.133  92.500  21.367  0.00  0.00    +0.255 HD
ATOM     81  HE  ARG A   5       4.217  90.668  20.473  0.00  0.00    +0.259 HD
ENDBRANCH  72  73
ENDBRANCH  71  72
ENDBRANCH  70  71
ENDBRANCH   1  70
TORSDOF 28
REMARK  Name = ../refined-set-2016/3sk2/3sk2_pocket.pdb
REMARK  119 active torsions:
REMARK  status: ('A' for Active; 'I' for Inactive)
REMARK    1  A    between atoms: _1  and  _3
REMARK    2  A    between atoms: _3  and  _4
REMARK    3  A    between atoms: _3  and  _6
REMARK    4  A    between atoms: _6  and  _7
REMARK    5  A    between atoms: _7  and  _8
REMARK    6  A    between atoms: _11  and  _13
REMARK    7  A    between atoms: _13  and  _14
REMARK    8  A    between atoms: _13  and  _16
REMARK    9  A    between atoms: _16  and  _17
REMARK   10  A    between atoms: _17  and  _18
REMARK   11  A    between atoms: _20  and  _22
REMARK   12  A    between atoms: _22  and  _23
REMARK   13  A    between atoms: _22  and  _25
REMARK   14  A    between atoms: _25  and  _26
REMARK   15  A    between atoms: _31  and  _32
REMARK   16  A    between atoms: _34  and  _36
REMARK   17  A    between atoms: _36  and  _37
REMARK   18  A    between atoms: _36  and  _39
REMARK   19  A    between atoms: _39  and  _40
REMARK   20  A    between atoms: _43  and  _45
REMARK   21  A    between atoms: _45  and  _46
REMARK   22  A    between atoms: _45  and  _48
REMARK   23  A    between atoms: _51  and  _53
REMARK   24  A    between atoms: _53  and  _54
REMARK   25  A    between atoms: _53  and  _56
REMARK   26  A    between atoms: _56  and  _57
REMARK   27  A    between atoms: _63  and  _65
REMARK   28  A    between atoms: _65  and  _66
REMARK   29  A    between atoms: _68  and  _70
REMARK   30  A    between atoms: _70  and  _71
REMARK   31  A    between atoms: _70  and  _73
REMARK   32  A    between atoms: _73  and  _74
REMARK   33  A    between atoms: _77  and  _79
REMARK   34  A    between atoms: _79  and  _80
REMARK   35  A    between atoms: _79  and  _82
REMARK   36  A    between atoms: _82  and  _83
REMARK   37  A    between atoms: _83  and  _84
REMARK   38  A    between atoms: _84  and  _85
REMARK   39  A    between atoms: _94  and  _96
REMARK   40  A    between atoms: _96  and  _97
REMARK   41  A    between atoms: _96  and  _99
REMARK   42  A    between atoms: _102  and  _104
REMARK   43  A    between atoms: _104  and  _105
REMARK   44  A    between atoms: _104  and  _107
REMARK   45  A    between atoms: _110  and  _111
REMARK   46  A    between atoms: _116  and  _118
REMARK   47  A    between atoms: _118  and  _119
REMARK   48  A    between atoms: _118  and  _121
REMARK   49  A    between atoms: _121  and  _122
REMARK   50  A    between atoms: _125  and  _127
REMARK   51  A    between atoms: _127  and  _128
REMARK   52  A    between atoms: _127  and  _130
REMARK   53  A    between atoms: _130  and  _131
REMARK   54  A    between atoms: _135  and  _137
REMARK   55  A    between atoms: _137  and  _138
REMARK   56  A    between atoms: _137  and  _140
REMARK   57  A    between atoms: _140  and  _141
REMARK   58  A    between atoms: _144  and  _146
REMARK   59  A    between atoms: _146  and  _147
REMARK   60  A    between atoms: _146  and  _149
REMARK   61  A    between atoms: _149  and  _150
REMARK   62  A    between atoms: _153  and  _155
REMARK   63  A    between atoms: _155  and  _156
REMARK   64  A    between atoms: _155  and  _158
REMARK   65  A    between atoms: _161  and  _163
REMARK   66  A    between atoms: _163  and  _164
REMARK   67  A    between atoms: _163  and  _166
REMARK   68  A    between atoms: _166  and  _167
REMARK   69  A    between atoms: _172  and  _173
REMARK   70  A    between atoms: _175  and  _177
REMARK   71  A    between atoms: _177  and  _178
REMARK   72  A    between atoms: _177  and  _180
REMARK   73  A    between atoms: _180  and  _181
REMARK   74  A    between atoms: _187  and  _189
REMARK   75  A    between atoms: _189  and  _190
REMARK   76  A    between atoms: _189  and  _192
REMARK   77  A    between atoms: _195  and  _197
REMARK   78  A    between atoms: _197  and  _198
REMARK   79  A    between atoms: _197  and  _200
REMARK   80  A    between atoms: _200  and  _201
REMARK   81  A    between atoms: _205  and  _206
REMARK   82  A    between atoms: _211  and  _213
REMARK   83  A    between atoms: _213  and  _214
REMARK   84  A    between atoms: _213  and  _216
REMARK   85  A    between atoms: _216  and  _217
REMARK   86  A    between atoms: _217  and  _218
REMARK   87  A    between atoms: _218  and  _219
REMARK   88  A    between atoms: _228  and  _230
REMARK   89  A    between atoms: _230  and  _231
REMARK   90  A    between atoms: _230  and  _233
REMARK   91  A    between atoms: _233  and  _234
REMARK   92  A    between atoms: _239  and  _240
REMARK   93  A    between atoms: _242  and  _244
REMARK   94  A    between atoms: _244  and  _245
REMARK   95  A    between atoms: _244  and  _247
REMARK   96  A    between atoms: _250  and  _252
REMARK   97  A    between atoms: _252  and  _253
REMARK   98  A    between atoms: _256  and  _258
REMARK   99  A    between atoms: _258  and  _259
REMARK  100  A    between atoms: _258  and  _261
REMARK  101  A    between atoms: _261  and  _262
REMARK  102  A    between atoms: _265  and  _267
REMARK  103  A    between atoms: _267  and  _268
REMARK  104  A    between atoms: _271  and  _273
REMARK  105  A    between atoms: _273  and  _274
REMARK  106  A    between atoms: _273  and  _276
REMARK  107  A    between atoms: _276  and  _277
REMARK  108  A    between atoms: _280  and  _282
REMARK  109  A    between atoms: _282  and  _283
REMARK  110  A    between atoms: _282  and  _285
REMARK  111  A    between atoms: _285  and  _286
REMARK  112  A    between atoms: _296  and  _298
REMARK  113  A    between atoms: _298  and  _299
REMARK  114  A    between atoms: _298  and  _301
REMARK  115  A    between atoms: _301  and  _302
REMARK  116  A    between atoms: _304  and  _306
REMARK  117  A    between atoms: _306  and  _307
REMARK  118  A    between atoms: _309  and  _311
REMARK  119  A    between atoms: _311  and  _312
REMARK                            x       y       z     vdW  Elec       q    Type
REMARK                         _______ _______ _______ _____ _____    ______ ____
ROOT
ATOM      1  CA  LEU A   1      -4.424  75.469  22.597  0.00  0.00    +0.133 C 
ENDROOT
BRANCH   1   2
ATOM      2  N   LEU A   1      -4.966  74.727  23.732  0.00  0.00    -0.239 NA
ATOM      3  H   LEU A   1      -4.324  74.507  24.520  0.00  0.00    +0.142 HD
ENDBRANCH   1   2
BRANCH   1   4
ATOM      4  C   LEU A   1      -3.052  74.926  22.204  0.00  0.00    +0.224 C 
ATOM      5  O   LEU A   1      -2.312  74.397  23.054  0.00  0.00    -0.287 OA
ENDBRANCH   1   4
BRANCH   1   6
ATOM      6  CB  LEU A   1      -4.258  76.945  22.957  0.00  0.00    +0.025 C 
BRANCH   6   7
ATOM      7  CG  LEU A   1      -5.528  77.705  23.308  0.00  0.00    +0.002 C 
ATOM      8  CD2 LEU A   1      -5.139  79.069  23.840  0.00  0.00    +0.000 C 
ATOM      9  CD1 LEU A   1      -6.462  77.812  22.152  0.00  0.00    +0.000 C 
ENDBRANCH   6   7
ENDBRANCH   1   6
TORSDOF 4
REMARK  Name = ../refined-set-2016/3sk2/3sk2_pocket.pdb
REMARK  119 active torsions:
REMARK  status: ('A' for Active; 'I' for Inactive)
REMARK    1  A    between atoms: _1  and  _3
REMARK    2  A    between atoms: _3  and  _4
REMARK    3  A    between atoms: _3  and  _6
REMARK    4  A    between atoms: _6  and  _7
REMARK    5  A    between atoms: _7  and  _8
REMARK    6  A    between atoms: _11  and  _13
REMARK    7  A    between atoms: _13  and  _14
REMARK    8  A    between atoms: _13  and  _16
REMARK    9  A    between atoms: _16  and  _17
REMARK   10  A    between atoms: _17  and  _18
REMARK   11  A    between atoms: _20  and  _22
REMARK   12  A    between atoms: _22  and  _23
REMARK   13  A    between atoms: _22  and  _25
REMARK   14  A    between atoms: _25  and  _26
REMARK   15  A    between atoms: _31  and  _32
REMARK   16  A    between atoms: _34  and  _36
REMARK   17  A    between atoms: _36  and  _37
REMARK   18  A    between atoms: _36  and  _39
REMARK   19  A    between atoms: _39  and  _40
REMARK   20  A    between atoms: _43  and  _45
REMARK   21  A    between atoms: _45  and  _46
REMARK   22  A    between atoms: _45  and  _48
REMARK   23  A    between atoms: _51  and  _53
REMARK   24  A    between atoms: _53  and  _54
REMARK   25  A    between atoms: _53  and  _56
REMARK   26  A    between atoms: _56  and  _57
REMARK   27  A    between atoms: _63  and  _65
REMARK   28  A    between atoms: _65  and  _66
REMARK   29  A    between atoms: _68  and  _70
REMARK   30  A    between atoms: _70  and  _71
REMARK   31  A    between atoms: _70  and  _73
REMARK   32  A    between atoms: _73  and  _74
REMARK   33  A    between atoms: _77  and  _79
REMARK   34  A    between atoms: _79  and  _80
REMARK   35  A    between atoms: _79  and  _82
REMARK   36  A    between atoms: _82  and  _83
REMARK   37  A    between atoms: _83  and  _84
REMARK   38  A    between atoms: _84  and  _85
REMARK   39  A    between atoms: _94  and  _96
REMARK   40  A    between atoms: _96  and  _97
REMARK   41  A    between atoms: _96  and  _99
REMARK   42  A    between atoms: _102  and  _104
REMARK   43  A    between atoms: _104  and  _105
REMARK   44  A    between atoms: _104  and  _107
REMARK   45  A    between atoms: _110  and  _111
REMARK   46  A    between atoms: _116  and  _118
REMARK   47  A    between atoms: _118  and  _119
REMARK   48  A    between atoms: _118  and  _121
REMARK   49  A    between atoms: _121  and  _122
REMARK   50  A    between atoms: _125  and  _127
REMARK   51  A    between atoms: _127  and  _128
REMARK   52  A    between atoms: _127  and  _130
REMARK   53  A    between atoms: _130  and  _131
REMARK   54  A    between atoms: _135  and  _137
REMARK   55  A    between atoms: _137  and  _138
REMARK   56  A    between atoms: _137  and  _140
REMARK   57  A    between atoms: _140  and  _141
REMARK   58  A    between atoms: _144  and  _146
REMARK   59  A    between atoms: _146  and  _147
REMARK   60  A    between atoms: _146  and  _149
REMARK   61  A    between atoms: _149  and  _150
REMARK   62  A    between atoms: _153  and  _155
REMARK   63  A    between atoms: _155  and  _156
REMARK   64  A    between atoms: _155  and  _158
REMARK   65  A    between atoms: _161  and  _163
REMARK   66  A    between atoms: _163  and  _164
REMARK   67  A    between atoms: _163  and  _166
REMARK   68  A    between atoms: _166  and  _167
REMARK   69  A    between atoms: _172  and  _173
REMARK   70  A    between atoms: _175  and  _177
REMARK   71  A    between atoms: _177  and  _178
REMARK   72  A    between atoms: _177  and  _180
REMARK   73  A    between atoms: _180  and  _181
REMARK   74  A    between atoms: _187  and  _189
REMARK   75  A    between atoms: _189  and  _190
REMARK   76  A    between atoms: _189  and  _192
REMARK   77  A    between atoms: _195  and  _197
REMARK   78  A    between atoms: _197  and  _198
REMARK   79  A    between atoms: _197  and  _200
REMARK   80  A    between atoms: _200  and  _201
REMARK   81  A    between atoms: _205  and  _206
REMARK   82  A    between atoms: _211  and  _213
REMARK   83  A    between atoms: _213  and  _214
REMARK   84  A    between atoms: _213  and  _216
REMARK   85  A    between atoms: _216  and  _217
REMARK   86  A    between atoms: _217  and  _218
REMARK   87  A    between atoms: _218  and  _219
REMARK   88  A    between atoms: _228  and  _230
REMARK   89  A    between atoms: _230  and  _231
REMARK   90  A    between atoms: _230  and  _233
REMARK   91  A    between atoms: _233  and  _234
REMARK   92  A    between atoms: _239  and  _240
REMARK   93  A    between atoms: _242  and  _244
REMARK   94  A    between atoms: _244  and  _245
REMARK   95  A    between atoms: _244  and  _247
REMARK   96  A    between atoms: _250  and  _252
REMARK   97  A    between atoms: _252  and  _253
REMARK   98  A    between atoms: _256  and  _258
REMARK   99  A    between atoms: _258  and  _259
REMARK  100  A    between atoms: _258  and  _261
REMARK  101  A    between atoms: _261  and  _262
REMARK  102  A    between atoms: _265  and  _267
REMARK  103  A    between atoms: _267  and  _268
REMARK  104  A    between atoms: _271  and  _273
REMARK  105  A    between atoms: _273  and  _274
REMARK  106  A    between atoms: _273  and  _276
REMARK  107  A    between atoms: _276  and  _277
REMARK  108  A    between atoms: _280  and  _282
REMARK  109  A    between atoms: _282  and  _283
REMARK  110  A    between atoms: _282  and  _285
REMARK  111  A    between atoms: _285  and  _286
REMARK  112  A    between atoms: _296  and  _298
REMARK  113  A    between atoms: _298  and  _299
REMARK  114  A    between atoms: _298  and  _301
REMARK  115  A    between atoms: _301  and  _302
REMARK  116  A    between atoms: _304  and  _306
REMARK  117  A    between atoms: _306  and  _307
REMARK  118  A    between atoms: _309  and  _311
REMARK  119  A    between atoms: _311  and  _312
REMARK                            x       y       z     vdW  Elec       q    Type
REMARK                         _______ _______ _______ _____ _____    ______ ____
ROOT
ATOM      1  CA  TRP A   3       5.807  82.242  19.864  0.00  0.00    +0.153 C 
ENDROOT
BRANCH   1   3
ATOM      2  C   ILE A   2       4.100  80.891  18.789  0.00  0.00    +0.241 C 
ATOM      3  N   TRP A   3       5.368  81.051  19.159  0.00  0.00    -0.297 N 
ATOM      4  H   TRP A   3       6.060  80.307  18.938  0.00  0.00    +0.150 HD
ATOM      5  O   ILE A   2       3.265  81.797  18.845  0.00  0.00    -0.273 OA
BRANCH   2   6
ATOM      6  CA  ILE A   2       3.690  79.508  18.262  0.00  0.00    +0.148 C 
BRANCH   6   9
ATOM      7  C   ALA A   1       2.151  78.171  19.639  0.00  0.00    +0.238 C 
ATOM      8  O   ALA A   1       2.997  77.372  20.014  0.00  0.00    -0.274 OA
ATOM      9  N   ILE A   2       2.378  79.166  18.776  0.00  0.00    -0.297 N 
ATOM     10  H   ILE A   2       1.565  79.729  18.454  0.00  0.00    +0.150 HD
BRANCH   7  11
ATOM     11  CA  ALA A   1       0.729  78.152  20.129  0.00  0.00    +0.145 C 
ATOM     12  CB  ALA A   1       0.584  79.027  21.338  0.00  0.00    +0.028 C 
BRANCH  11  13
ATOM     13  N   ALA A   1       0.273  76.786  20.418  0.00  0.00    -0.238 NA
ATOM     14  H   ALA A   1       0.878  76.156  20.982  0.00  0.00    +0.142 HD
ENDBRANCH  11  13
ENDBRANCH   7  11
ENDBRANCH   6   9
BRANCH   6  15
ATOM     15  CB  ILE A   2       3.710  79.434  16.710  0.00  0.00    +0.027 C 
ATOM     16  CG2 ILE A   2       3.599  77.993  16.268  0.00  0.00    +0.002 C 
BRANCH  15  17
ATOM     17  CG1 ILE A   2       2.628  80.330  16.092  0.00  0.00    +0.002 C 
ATOM     18  CD1 ILE A   2       2.669  80.447  14.585  0.00  0.00    +0.000 C 
ENDBRANCH  15  17
ENDBRANCH   6  15
ENDBRANCH   2   6
ENDBRANCH   1   3
BRANCH   1  19
ATOM     19  C   TRP A   3       7.215  82.605  19.429  0.00  0.00    +0.241 C 
ATOM     20  O   TRP A   3       8.113  81.778  19.475  0.00  0.00    -0.273 OA
ATOM     21  N   SER A   4       7.439  83.863  19.060  0.00  0.00    -0.295 N 
ATOM     22  H   SER A   4       6.641  84.529  19.015  0.00  0.00    +0.150 HD
BRANCH  21  23
ATOM     23  CA  SER A   4       8.794  84.337  18.713  0.00  0.00    +0.178 C 
BRANCH  23  24
ATOM     24  C   SER A   4       9.544  84.939  19.897  0.00  0.00    +0.243 C 
ATOM     25  N   GLY A   5       8.982  84.919  21.109  0.00  0.00    -0.295 N 
ATOM     26  H   GLY A   5       8.036  84.499  21.207  0.00  0.00    +0.150 HD
ATOM     27  O   SER A   4      10.674  85.382  19.719  0.00  0.00    -0.273 OA
BRANCH  25  28
ATOM     28  CA  GLY A   5       9.630  85.459  22.309  0.00  0.00    +0.176 C 
BRANCH  28  29
ATOM     29  C   GLY A   5      10.487  84.498  23.114  0.00  0.00    +0.243 C 
ATOM     30  O   GLY A   5      11.033  84.853  24.183  0.00  0.00    -0.273 OA
ATOM     31  N   GLY A   6      10.612  83.284  22.592  0.00  0.00    -0.296 N 
ATOM     32  H   GLY A   6      10.054  83.057  21.744  0.00  0.00    +0.150 HD
BRANCH  31  33
ATOM     33  CA  GLY A   6      11.484  82.250  23.135  0.00  0.00    +0.163 C 
BRANCH  33  34
ATOM     34  C   GLY A   6      12.755  82.137  22.297  0.00  0.00    +0.229 C 
ATOM     35  O   GLY A   6      12.908  82.721  21.187  0.00  0.00    -0.286 OA
ENDBRANCH  33  34
ENDBRANCH  31  33
ENDBRANCH  28  29
ENDBRANCH  25  28
ENDBRANCH  23  24
BRANCH  23  36
ATOM     36  CB  SER A   4       8.754  85.282  17.539  0.00  0.00    +0.166 C 
BRANCH  36  37
ATOM     37  OG  SER A   4       8.024  86.441  17.945  0.00  0.00    -0.380 OA
ATOM     38  H   SER A   4       7.980  87.083  17.192  0.00  0.00    +0.211 HD
ENDBRANCH  36  37
ENDBRANCH  23  36
ENDBRANCH  21  23
ENDBRANCH   1  19
BRANCH   1  39
ATOM     39  CB  TRP A   3       5.834  81.959  21.370  0.00  0.00    +0.057 C 
BRANCH  39  40
ATOM     40  CG  TRP A   3       6.169  83.094  22.265  0.00  0.00    -0.002 A 
ATOM     41  CD2 TRP A   3       6.914  83.039  23.476  0.00  0.00    +0.013 A 
ATOM     42  CE3 TRP A   3       7.646  82.031  24.130  0.00  0.00    +0.001 A 
ATOM     43  CZ3 TRP A   3       8.299  82.328  25.326  0.00  0.00    +0.000 A 
ATOM     44  CH2 TRP A   3       8.235  83.601  25.876  0.00  0.00    +0.001 A 
ATOM     45  CZ2 TRP A   3       7.544  84.630  25.260  0.00  0.00    +0.017 A 
ATOM     46  CE2 TRP A   3       6.905  84.320  24.039  0.00  0.00    +0.056 A 
ATOM     47  NE1 TRP A   3       6.169  85.111  23.208  0.00  0.00    -0.352 N 
ATOM     48  HE1 TRP A   3       5.985  86.125  23.346  0.00  0.00    +0.166 HD
ATOM     49  CD1 TRP A   3       5.710  84.354  22.159  0.00  0.00    +0.068 A 
ENDBRANCH  39  40
ENDBRANCH   1  39
TORSDOF 18
REMARK  Name = ../refined-set-2016/3sk2/3sk2_pocket.pdb
REMARK  119 active torsions:
REMARK  status: ('A' for Active; 'I' for Inactive)
REMARK    1  A    between atoms: _1  and  _3
REMARK    2  A    between atoms: _3  and  _4
REMARK    3  A    between atoms: _3  and  _6
REMARK    4  A    between atoms: _6  and  _7
REMARK    5  A    between atoms: _7  and  _8
REMARK    6  A    between atoms: _11  and  _13
REMARK    7  A    between atoms: _13  and  _14
REMARK    8  A    between atoms: _13  and  _16
REMARK    9  A    between atoms: _16  and  _17
REMARK   10  A    between atoms: _17  and  _18
REMARK   11  A    between atoms: _20  and  _22
REMARK   12  A    between atoms: _22  and  _23
REMARK   13  A    between atoms: _22  and  _25
REMARK   14  A    between atoms: _25  and  _26
REMARK   15  A    between atoms: _31  and  _32
REMARK   16  A    between atoms: _34  and  _36
REMARK   17  A    between atoms: _36  and  _37
REMARK   18  A    between atoms: _36  and  _39
REMARK   19  A    between atoms: _39  and  _40
REMARK   20  A    between atoms: _43  and  _45
REMARK   21  A    between atoms: _45  and  _46
REMARK   22  A    between atoms: _45  and  _48
REMARK   23  A    between atoms: _51  and  _53
REMARK   24  A    between atoms: _53  and  _54
REMARK   25  A    between atoms: _53  and  _56
REMARK   26  A    between atoms: _56  and  _57
REMARK   27  A    between atoms: _63  and  _65
REMARK   28  A    between atoms: _65  and  _66
REMARK   29  A    between atoms: _68  and  _70
REMARK   30  A    between atoms: _70  and  _71
REMARK   31  A    between atoms: _70  and  _73
REMARK   32  A    between atoms: _73  and  _74
REMARK   33  A    between atoms: _77  and  _79
REMARK   34  A    between atoms: _79  and  _80
REMARK   35  A    between atoms: _79  and  _82
REMARK   36  A    between atoms: _82  and  _83
REMARK   37  A    between atoms: _83  and  _84
REMARK   38  A    between atoms: _84  and  _85
REMARK   39  A    between atoms: _94  and  _96
REMARK   40  A    between atoms: _96  and  _97
REMARK   41  A    between atoms: _96  and  _99
REMARK   42  A    between atoms: _102  and  _104
REMARK   43  A    between atoms: _104  and  _105
REMARK   44  A    between atoms: _104  and  _107
REMARK   45  A    between atoms: _110  and  _111
REMARK   46  A    between atoms: _116  and  _118
REMARK   47  A    between atoms: _118  and  _119
REMARK   48  A    between atoms: _118  and  _121
REMARK   49  A    between atoms: _121  and  _122
REMARK   50  A    between atoms: _125  and  _127
REMARK   51  A    between atoms: _127  and  _128
REMARK   52  A    between atoms: _127  and  _130
REMARK   53  A    between atoms: _130  and  _131
REMARK   54  A    between atoms: _135  and  _137
REMARK   55  A    between atoms: _137  and  _138
REMARK   56  A    between atoms: _137  and  _140
REMARK   57  A    between atoms: _140  and  _141
REMARK   58  A    between atoms: _144  and  _146
REMARK   59  A    between atoms: _146  and  _147
REMARK   60  A    between atoms: _146  and  _149
REMARK   61  A    between atoms: _149  and  _150
REMARK   62  A    between atoms: _153  and  _155
REMARK   63  A    between atoms: _155  and  _156
REMARK   64  A    between atoms: _155  and  _158
REMARK   65  A    between atoms: _161  and  _163
REMARK   66  A    between atoms: _163  and  _164
REMARK   67  A    between atoms: _163  and  _166
REMARK   68  A    between atoms: _166  and  _167
REMARK   69  A    between atoms: _172  and  _173
REMARK   70  A    between atoms: _175  and  _177
REMARK   71  A    between atoms: _177  and  _178
REMARK   72  A    between atoms: _177  and  _180
REMARK   73  A    between atoms: _180  and  _181
REMARK   74  A    between atoms: _187  and  _189
REMARK   75  A    between atoms: _189  and  _190
REMARK   76  A    between atoms: _189  and  _192
REMARK   77  A    between atoms: _195  and  _197
REMARK   78  A    between atoms: _197  and  _198
REMARK   79  A    between atoms: _197  and  _200
REMARK   80  A    between atoms: _200  and  _201
REMARK   81  A    between atoms: _205  and  _206
REMARK   82  A    between atoms: _211  and  _213
REMARK   83  A    between atoms: _213  and  _214
REMARK   84  A    between atoms: _213  and  _216
REMARK   85  A    between atoms: _216  and  _217
REMARK   86  A    between atoms: _217  and  _218
REMARK   87  A    between atoms: _218  and  _219
REMARK   88  A    between atoms: _228  and  _230
REMARK   89  A    between atoms: _230  and  _231
REMARK   90  A    between atoms: _230  and  _233
REMARK   91  A    between atoms: _233  and  _234
REMARK   92  A    between atoms: _239  and  _240
REMARK   93  A    between atoms: _242  and  _244
REMARK   94  A    between atoms: _244  and  _245
REMARK   95  A    between atoms: _244  and  _247
REMARK   96  A    between atoms: _250  and  _252
REMARK   97  A    between atoms: _252  and  _253
REMARK   98  A    between atoms: _256  and  _258
REMARK   99  A    between atoms: _258  and  _259
REMARK  100  A    between atoms: _258  and  _261
REMARK  101  A    between atoms: _261  and  _262
REMARK  102  A    between atoms: _265  and  _267
REMARK  103  A    between atoms: _267  and  _268
REMARK  104  A    between atoms: _271  and  _273
REMARK  105  A    between atoms: _273  and  _274
REMARK  106  A    between atoms: _273  and  _276
REMARK  107  A    between atoms: _276  and  _277
REMARK  108  A    between atoms: _280  and  _282
REMARK  109  A    between atoms: _282  and  _283
REMARK  110  A    between atoms: _282  and  _285
REMARK  111  A    between atoms: _285  and  _286
REMARK  112  A    between atoms: _296  and  _298
REMARK  113  A    between atoms: _298  and  _299
REMARK  114  A    between atoms: _298  and  _301
REMARK  115  A    between atoms: _301  and  _302
REMARK  116  A    between atoms: _304  and  _306
REMARK  117  A    between atoms: _306  and  _307
REMARK  118  A    between atoms: _309  and  _311
REMARK  119  A    between atoms: _311  and  _312
REMARK                            x       y       z     vdW  Elec       q    Type
REMARK                         _______ _______ _______ _____ _____    ______ ____
ROOT
ATOM      1  O   HOH     1       9.982  85.872  28.413  0.00  0.00    +0.000 OA
ENDROOT
TORSDOF 0
REMARK  Name = ../refined-set-2016/3sk2/3sk2_pocket.pdb
REMARK  119 active torsions:
REMARK  status: ('A' for Active; 'I' for Inactive)
REMARK    1  A    between atoms: _1  and  _3
REMARK    2  A    between atoms: _3  and  _4
REMARK    3  A    between atoms: _3  and  _6
REMARK    4  A    between atoms: _6  and  _7
REMARK    5  A    between atoms: _7  and  _8
REMARK    6  A    between atoms: _11  and  _13
REMARK    7  A    between atoms: _13  and  _14
REMARK    8  A    between atoms: _13  and  _16
REMARK    9  A    between atoms: _16  and  _17
REMARK   10  A    between atoms: _17  and  _18
REMARK   11  A    between atoms: _20  and  _22
REMARK   12  A    between atoms: _22  and  _23
REMARK   13  A    between atoms: _22  and  _25
REMARK   14  A    between atoms: _25  and  _26
REMARK   15  A    between atoms: _31  and  _32
REMARK   16  A    between atoms: _34  and  _36
REMARK   17  A    between atoms: _36  and  _37
REMARK   18  A    between atoms: _36  and  _39
REMARK   19  A    between atoms: _39  and  _40
REMARK   20  A    between atoms: _43  and  _45
REMARK   21  A    between atoms: _45  and  _46
REMARK   22  A    between atoms: _45  and  _48
REMARK   23  A    between atoms: _51  and  _53
REMARK   24  A    between atoms: _53  and  _54
REMARK   25  A    between atoms: _53  and  _56
REMARK   26  A    between atoms: _56  and  _57
REMARK   27  A    between atoms: _63  and  _65
REMARK   28  A    between atoms: _65  and  _66
REMARK   29  A    between atoms: _68  and  _70
REMARK   30  A    between atoms: _70  and  _71
REMARK   31  A    between atoms: _70  and  _73
REMARK   32  A    between atoms: _73  and  _74
REMARK   33  A    between atoms: _77  and  _79
REMARK   34  A    between atoms: _79  and  _80
REMARK   35  A    between atoms: _79  and  _82
REMARK   36  A    between atoms: _82  and  _83
REMARK   37  A    between atoms: _83  and  _84
REMARK   38  A    between atoms: _84  and  _85
REMARK   39  A    between atoms: _94  and  _96
REMARK   40  A    between atoms: _96  and  _97
REMARK   41  A    between atoms: _96  and  _99
REMARK   42  A    between atoms: _102  and  _104
REMARK   43  A    between atoms: _104  and  _105
REMARK   44  A    between atoms: _104  and  _107
REMARK   45  A    between atoms: _110  and  _111
REMARK   46  A    between atoms: _116  and  _118
REMARK   47  A    between atoms: _118  and  _119
REMARK   48  A    between atoms: _118  and  _121
REMARK   49  A    between atoms: _121  and  _122
REMARK   50  A    between atoms: _125  and  _127
REMARK   51  A    between atoms: _127  and  _128
REMARK   52  A    between atoms: _127  and  _130
REMARK   53  A    between atoms: _130  and  _131
REMARK   54  A    between atoms: _135  and  _137
REMARK   55  A    between atoms: _137  and  _138
REMARK   56  A    between atoms: _137  and  _140
REMARK   57  A    between atoms: _140  and  _141
REMARK   58  A    between atoms: _144  and  _146
REMARK   59  A    between atoms: _146  and  _147
REMARK   60  A    between atoms: _146  and  _149
REMARK   61  A    between atoms: _149  and  _150
REMARK   62  A    between atoms: _153  and  _155
REMARK   63  A    between atoms: _155  and  _156
REMARK   64  A    between atoms: _155  and  _158
REMARK   65  A    between atoms: _161  and  _163
REMARK   66  A    between atoms: _163  and  _164
REMARK   67  A    between atoms: _163  and  _166
REMARK   68  A    between atoms: _166  and  _167
REMARK   69  A    between atoms: _172  and  _173
REMARK   70  A    between atoms: _175  and  _177
REMARK   71  A    between atoms: _177  and  _178
REMARK   72  A    between atoms: _177  and  _180
REMARK   73  A    between atoms: _180  and  _181
REMARK   74  A    between atoms: _187  and  _189
REMARK   75  A    between atoms: _189  and  _190
REMARK   76  A    between atoms: _189  and  _192
REMARK   77  A    between atoms: _195  and  _197
REMARK   78  A    between atoms: _197  and  _198
REMARK   79  A    between atoms: _197  and  _200
REMARK   80  A    between atoms: _200  and  _201
REMARK   81  A    between atoms: _205  and  _206
REMARK   82  A    between atoms: _211  and  _213
REMARK   83  A    between atoms: _213  and  _214
REMARK   84  A    between atoms: _213  and  _216
REMARK   85  A    between atoms: _216  and  _217
REMARK   86  A    between atoms: _217  and  _218
REMARK   87  A    between atoms: _218  and  _219
REMARK   88  A    between atoms: _228  and  _230
REMARK   89  A    between atoms: _230  and  _231
REMARK   90  A    between atoms: _230  and  _233
REMARK   91  A    between atoms: _233  and  _234
REMARK   92  A    between atoms: _239  and  _240
REMARK   93  A    between atoms: _242  and  _244
REMARK   94  A    between atoms: _244  and  _245
REMARK   95  A    between atoms: _244  and  _247
REMARK   96  A    between atoms: _250  and  _252
REMARK   97  A    between atoms: _252  and  _253
REMARK   98  A    between atoms: _256  and  _258
REMARK   99  A    between atoms: _258  and  _259
REMARK  100  A    between atoms: _258  and  _261
REMARK  101  A    between atoms: _261  and  _262
REMARK  102  A    between atoms: _265  and  _267
REMARK  103  A    between atoms: _267  and  _268
REMARK  104  A    between atoms: _271  and  _273
REMARK  105  A    between atoms: _273  and  _274
REMARK  106  A    between atoms: _273  and  _276
REMARK  107  A    between atoms: _276  and  _277
REMARK  108  A    between atoms: _280  and  _282
REMARK  109  A    between atoms: _282  and  _283
REMARK  110  A    between atoms: _282  and  _285
REMARK  111  A    between atoms: _285  and  _286
REMARK  112  A    between atoms: _296  and  _298
REMARK  113  A    between atoms: _298  and  _299
REMARK  114  A    between atoms: _298  and  _301
REMARK  115  A    between atoms: _301  and  _302
REMARK  116  A    between atoms: _304  and  _306
REMARK  117  A    between atoms: _306  and  _307
REMARK  118  A    between atoms: _309  and  _311
REMARK  119  A    between atoms: _311  and  _312
REMARK                            x       y       z     vdW  Elec       q    Type
REMARK                         _______ _______ _______ _____ _____    ______ ____
ROOT
ATOM      1  O   HOH     1      -6.824  88.966  30.029  0.00  0.00    +0.000 OA
ENDROOT
TORSDOF 0
REMARK  Name = ../refined-set-2016/3sk2/3sk2_pocket.pdb
REMARK  119 active torsions:
REMARK  status: ('A' for Active; 'I' for Inactive)
REMARK    1  A    between atoms: _1  and  _3
REMARK    2  A    between atoms: _3  and  _4
REMARK    3  A    between atoms: _3  and  _6
REMARK    4  A    between atoms: _6  and  _7
REMARK    5  A    between atoms: _7  and  _8
REMARK    6  A    between atoms: _11  and  _13
REMARK    7  A    between atoms: _13  and  _14
REMARK    8  A    between atoms: _13  and  _16
REMARK    9  A    between atoms: _16  and  _17
REMARK   10  A    between atoms: _17  and  _18
REMARK   11  A    between atoms: _20  and  _22
REMARK   12  A    between atoms: _22  and  _23
REMARK   13  A    between atoms: _22  and  _25
REMARK   14  A    between atoms: _25  and  _26
REMARK   15  A    between atoms: _31  and  _32
REMARK   16  A    between atoms: _34  and  _36
REMARK   17  A    between atoms: _36  and  _37
REMARK   18  A    between atoms: _36  and  _39
REMARK   19  A    between atoms: _39  and  _40
REMARK   20  A    between atoms: _43  and  _45
REMARK   21  A    between atoms: _45  and  _46
REMARK   22  A    between atoms: _45  and  _48
REMARK   23  A    between atoms: _51  and  _53
REMARK   24  A    between atoms: _53  and  _54
REMARK   25  A    between atoms: _53  and  _56
REMARK   26  A    between atoms: _56  and  _57
REMARK   27  A    between atoms: _63  and  _65
REMARK   28  A    between atoms: _65  and  _66
REMARK   29  A    between atoms: _68  and  _70
REMARK   30  A    between atoms: _70  and  _71
REMARK   31  A    between atoms: _70  and  _73
REMARK   32  A    between atoms: _73  and  _74
REMARK   33  A    between atoms: _77  and  _79
REMARK   34  A    between atoms: _79  and  _80
REMARK   35  A    between atoms: _79  and  _82
REMARK   36  A    between atoms: _82  and  _83
REMARK   37  A    between atoms: _83  and  _84
REMARK   38  A    between atoms: _84  and  _85
REMARK   39  A    between atoms: _94  and  _96
REMARK   40  A    between atoms: _96  and  _97
REMARK   41  A    between atoms: _96  and  _99
REMARK   42  A    between atoms: _102  and  _104
REMARK   43  A    between atoms: _104  and  _105
REMARK   44  A    between atoms: _104  and  _107
REMARK   45  A    between atoms: _110  and  _111
REMARK   46  A    between atoms: _116  and  _118
REMARK   47  A    between atoms: _118  and  _119
REMARK   48  A    between atoms: _118  and  _121
REMARK   49  A    between atoms: _121  and  _122
REMARK   50  A    between atoms: _125  and  _127
REMARK   51  A    between atoms: _127  and  _128
REMARK   52  A    between atoms: _127  and  _130
REMARK   53  A    between atoms: _130  and  _131
REMARK   54  A    between atoms: _135  and  _137
REMARK   55  A    between atoms: _137  and  _138
REMARK   56  A    between atoms: _137  and  _140
REMARK   57  A    between atoms: _140  and  _141
REMARK   58  A    between atoms: _144  and  _146
REMARK   59  A    between atoms: _146  and  _147
REMARK   60  A    between atoms: _146  and  _149
REMARK   61  A    between atoms: _149  and  _150
REMARK   62  A    between atoms: _153  and  _155
REMARK   63  A    between atoms: _155  and  _156
REMARK   64  A    between atoms: _155  and  _158
REMARK   65  A    between atoms: _161  and  _163
REMARK   66  A    between atoms: _163  and  _164
REMARK   67  A    between atoms: _163  and  _166
REMARK   68  A    between atoms: _166  and  _167
REMARK   69  A    between atoms: _172  and  _173
REMARK   70  A    between atoms: _175  and  _177
REMARK   71  A    between atoms: _177  and  _178
REMARK   72  A    between atoms: _177  and  _180
REMARK   73  A    between atoms: _180  and  _181
REMARK   74  A    between atoms: _187  and  _189
REMARK   75  A    between atoms: _189  and  _190
REMARK   76  A    between atoms: _189  and  _192
REMARK   77  A    between atoms: _195  and  _197
REMARK   78  A    between atoms: _197  and  _198
REMARK   79  A    between atoms: _197  and  _200
REMARK   80  A    between atoms: _200  and  _201
REMARK   81  A    between atoms: _205  and  _206
REMARK   82  A    between atoms: _211  and  _213
REMARK   83  A    between atoms: _213  and  _214
REMARK   84  A    between atoms: _213  and  _216
REMARK   85  A    between atoms: _216  and  _217
REMARK   86  A    between atoms: _217  and  _218
REMARK   87  A    between atoms: _218  and  _219
REMARK   88  A    between atoms: _228  and  _230
REMARK   89  A    between atoms: _230  and  _231
REMARK   90  A    between atoms: _230  and  _233
REMARK   91  A    between atoms: _233  and  _234
REMARK   92  A    between atoms: _239  and  _240
REMARK   93  A    between atoms: _242  and  _244
REMARK   94  A    between atoms: _244  and  _245
REMARK   95  A    between atoms: _244  and  _247
REMARK   96  A    between atoms: _250  and  _252
REMARK   97  A    between atoms: _252  and  _253
REMARK   98  A    between atoms: _256  and  _258
REMARK   99  A    between atoms: _258  and  _259
REMARK  100  A    between atoms: _258  and  _261
REMARK  101  A    between atoms: _261  and  _262
REMARK  102  A    between atoms: _265  and  _267
REMARK  103  A    between atoms: _267  and  _268
REMARK  104  A    between atoms: _271  and  _273
REMARK  105  A    between atoms: _273  and  _274
REMARK  106  A    between atoms: _273  and  _276
REMARK  107  A    between atoms: _276  and  _277
REMARK  108  A    between atoms: _280  and  _282
REMARK  109  A    between atoms: _282  and  _283
REMARK  110  A    between atoms: _282  and  _285
REMARK  111  A    between atoms: _285  and  _286
REMARK  112  A    between atoms: _296  and  _298
REMARK  113  A    between atoms: _298  and  _299
REMARK  114  A    between atoms: _298  and  _301
REMARK  115  A    between atoms: _301  and  _302
REMARK  116  A    between atoms: _304  and  _306
REMARK  117  A    between atoms: _306  and  _307
REMARK  118  A    between atoms: _309  and  _311
REMARK  119  A    between atoms: _311  and  _312
REMARK                            x       y       z     vdW  Elec       q    Type
REMARK                         _______ _______ _______ _____ _____    ______ ____
ROOT
ATOM      1  O   HOH     1      -6.026  82.468  22.539  0.00  0.00    +0.000 OA
ENDROOT
TORSDOF 0
REMARK  Name = ../refined-set-2016/3sk2/3sk2_pocket.pdb
REMARK  119 active torsions:
REMARK  status: ('A' for Active; 'I' for Inactive)
REMARK    1  A    between atoms: _1  and  _3
REMARK    2  A    between atoms: _3  and  _4
REMARK    3  A    between atoms: _3  and  _6
REMARK    4  A    between atoms: _6  and  _7
REMARK    5  A    between atoms: _7  and  _8
REMARK    6  A    between atoms: _11  and  _13
REMARK    7  A    between atoms: _13  and  _14
REMARK    8  A    between atoms: _13  and  _16
REMARK    9  A    between atoms: _16  and  _17
REMARK   10  A    between atoms: _17  and  _18
REMARK   11  A    between atoms: _20  and  _22
REMARK   12  A    between atoms: _22  and  _23
REMARK   13  A    between atoms: _22  and  _25
REMARK   14  A    between atoms: _25  and  _26
REMARK   15  A    between atoms: _31  and  _32
REMARK   16  A    between atoms: _34  and  _36
REMARK   17  A    between atoms: _36  and  _37
REMARK   18  A    between atoms: _36  and  _39
REMARK   19  A    between atoms: _39  and  _40
REMARK   20  A    between atoms: _43  and  _45
REMARK   21  A    between atoms: _45  and  _46
REMARK   22  A    between atoms: _45  and  _48
REMARK   23  A    between atoms: _51  and  _53
REMARK   24  A    between atoms: _53  and  _54
REMARK   25  A    between atoms: _53  and  _56
REMARK   26  A    between atoms: _56  and  _57
REMARK   27  A    between atoms: _63  and  _65
REMARK   28  A    between atoms: _65  and  _66
REMARK   29  A    between atoms: _68  and  _70
REMARK   30  A    between atoms: _70  and  _71
REMARK   31  A    between atoms: _70  and  _73
REMARK   32  A    between atoms: _73  and  _74
REMARK   33  A    between atoms: _77  and  _79
REMARK   34  A    between atoms: _79  and  _80
REMARK   35  A    between atoms: _79  and  _82
REMARK   36  A    between atoms: _82  and  _83
REMARK   37  A    between atoms: _83  and  _84
REMARK   38  A    between atoms: _84  and  _85
REMARK   39  A    between atoms: _94  and  _96
REMARK   40  A    between atoms: _96  and  _97
REMARK   41  A    between atoms: _96  and  _99
REMARK   42  A    between atoms: _102  and  _104
REMARK   43  A    between atoms: _104  and  _105
REMARK   44  A    between atoms: _104  and  _107
REMARK   45  A    between atoms: _110  and  _111
REMARK   46  A    between atoms: _116  and  _118
REMARK   47  A    between atoms: _118  and  _119
REMARK   48  A    between atoms: _118  and  _121
REMARK   49  A    between atoms: _121  and  _122
REMARK   50  A    between atoms: _125  and  _127
REMARK   51  A    between atoms: _127  and  _128
REMARK   52  A    between atoms: _127  and  _130
REMARK   53  A    between atoms: _130  and  _131
REMARK   54  A    between atoms: _135  and  _137
REMARK   55  A    between atoms: _137  and  _138
REMARK   56  A    between atoms: _137  and  _140
REMARK   57  A    between atoms: _140  and  _141
REMARK   58  A    between atoms: _144  and  _146
REMARK   59  A    between atoms: _146  and  _147
REMARK   60  A    between atoms: _146  and  _149
REMARK   61  A    between atoms: _149  and  _150
REMARK   62  A    between atoms: _153  and  _155
REMARK   63  A    between atoms: _155  and  _156
REMARK   64  A    between atoms: _155  and  _158
REMARK   65  A    between atoms: _161  and  _163
REMARK   66  A    between atoms: _163  and  _164
REMARK   67  A    between atoms: _163  and  _166
REMARK   68  A    between atoms: _166  and  _167
REMARK   69  A    between atoms: _172  and  _173
REMARK   70  A    between atoms: _175  and  _177
REMARK   71  A    between atoms: _177  and  _178
REMARK   72  A    between atoms: _177  and  _180
REMARK   73  A    between atoms: _180  and  _181
REMARK   74  A    between atoms: _187  and  _189
REMARK   75  A    between atoms: _189  and  _190
REMARK   76  A    between atoms: _189  and  _192
REMARK   77  A    between atoms: _195  and  _197
REMARK   78  A    between atoms: _197  and  _198
REMARK   79  A    between atoms: _197  and  _200
REMARK   80  A    between atoms: _200  and  _201
REMARK   81  A    between atoms: _205  and  _206
REMARK   82  A    between atoms: _211  and  _213
REMARK   83  A    between atoms: _213  and  _214
REMARK   84  A    between atoms: _213  and  _216
REMARK   85  A    between atoms: _216  and  _217
REMARK   86  A    between atoms: _217  and  _218
REMARK   87  A    between atoms: _218  and  _219
REMARK   88  A    between atoms: _228  and  _230
REMARK   89  A    between atoms: _230  and  _231
REMARK   90  A    between atoms: _230  and  _233
REMARK   91  A    between atoms: _233  and  _234
REMARK   92  A    between atoms: _239  and  _240
REMARK   93  A    between atoms: _242  and  _244
REMARK   94  A    between atoms: _244  and  _245
REMARK   95  A    between atoms: _244  and  _247
REMARK   96  A    between atoms: _250  and  _252
REMARK   97  A    between atoms: _252  and  _253
REMARK   98  A    between atoms: _256  and  _258
REMARK   99  A    between atoms: _258  and  _259
REMARK  100  A    between atoms: _258  and  _261
REMARK  101  A    between atoms: _261  and  _262
REMARK  102  A    between atoms: _265  and  _267
REMARK  103  A    between atoms: _267  and  _268
REMARK  104  A    between atoms: _271  and  _273
REMARK  105  A    between atoms: _273  and  _274
REMARK  106  A    between atoms: _273  and  _276
REMARK  107  A    between atoms: _276  and  _277
REMARK  108  A    between atoms: _280  and  _282
REMARK  109  A    between atoms: _282  and  _283
REMARK  110  A    between atoms: _282  and  _285
REMARK  111  A    between atoms: _285  and  _286
REMARK  112  A    between atoms: _296  and  _298
REMARK  113  A    between atoms: _298  and  _299
REMARK  114  A    between atoms: _298  and  _301
REMARK  115  A    between atoms: _301  and  _302
REMARK  116  A    between atoms: _304  and  _306
REMARK  117  A    between atoms: _306  and  _307
REMARK  118  A    between atoms: _309  and  _311
REMARK  119  A    between atoms: _311  and  _312
REMARK                            x       y       z     vdW  Elec       q    Type
REMARK                         _______ _______ _______ _____ _____    ______ ____
ROOT
ATOM      1  O   HOH     1      -2.533  86.424  29.207  0.00  0.00    +0.000 OA
ENDROOT
TORSDOF 0
REMARK  Name = ../refined-set-2016/3sk2/3sk2_pocket.pdb
REMARK  119 active torsions:
REMARK  status: ('A' for Active; 'I' for Inactive)
REMARK    1  A    between atoms: _1  and  _3
REMARK    2  A    between atoms: _3  and  _4
REMARK    3  A    between atoms: _3  and  _6
REMARK    4  A    between atoms: _6  and  _7
REMARK    5  A    between atoms: _7  and  _8
REMARK    6  A    between atoms: _11  and  _13
REMARK    7  A    between atoms: _13  and  _14
REMARK    8  A    between atoms: _13  and  _16
REMARK    9  A    between atoms: _16  and  _17
REMARK   10  A    between atoms: _17  and  _18
REMARK   11  A    between atoms: _20  and  _22
REMARK   12  A    between atoms: _22  and  _23
REMARK   13  A    between atoms: _22  and  _25
REMARK   14  A    between atoms: _25  and  _26
REMARK   15  A    between atoms: _31  and  _32
REMARK   16  A    between atoms: _34  and  _36
REMARK   17  A    between atoms: _36  and  _37
REMARK   18  A    between atoms: _36  and  _39
REMARK   19  A    between atoms: _39  and  _40
REMARK   20  A    between atoms: _43  and  _45
REMARK   21  A    between atoms: _45  and  _46
REMARK   22  A    between atoms: _45  and  _48
REMARK   23  A    between atoms: _51  and  _53
REMARK   24  A    between atoms: _53  and  _54
REMARK   25  A    between atoms: _53  and  _56
REMARK   26  A    between atoms: _56  and  _57
REMARK   27  A    between atoms: _63  and  _65
REMARK   28  A    between atoms: _65  and  _66
REMARK   29  A    between atoms: _68  and  _70
REMARK   30  A    between atoms: _70  and  _71
REMARK   31  A    between atoms: _70  and  _73
REMARK   32  A    between atoms: _73  and  _74
REMARK   33  A    between atoms: _77  and  _79
REMARK   34  A    between atoms: _79  and  _80
REMARK   35  A    between atoms: _79  and  _82
REMARK   36  A    between atoms: _82  and  _83
REMARK   37  A    between atoms: _83  and  _84
REMARK   38  A    between atoms: _84  and  _85
REMARK   39  A    between atoms: _94  and  _96
REMARK   40  A    between atoms: _96  and  _97
REMARK   41  A    between atoms: _96  and  _99
REMARK   42  A    between atoms: _102  and  _104
REMARK   43  A    between atoms: _104  and  _105
REMARK   44  A    between atoms: _104  and  _107
REMARK   45  A    between atoms: _110  and  _111
REMARK   46  A    between atoms: _116  and  _118
REMARK   47  A    between atoms: _118  and  _119
REMARK   48  A    between atoms: _118  and  _121
REMARK   49  A    between atoms: _121  and  _122
REMARK   50  A    between atoms: _125  and  _127
REMARK   51  A    between atoms: _127  and  _128
REMARK   52  A    between atoms: _127  and  _130
REMARK   53  A    between atoms: _130  and  _131
REMARK   54  A    between atoms: _135  and  _137
REMARK   55  A    between atoms: _137  and  _138
REMARK   56  A    between atoms: _137  and  _140
REMARK   57  A    between atoms: _140  and  _141
REMARK   58  A    between atoms: _144  and  _146
REMARK   59  A    between atoms: _146  and  _147
REMARK   60  A    between atoms: _146  and  _149
REMARK   61  A    between atoms: _149  and  _150
REMARK   62  A    between atoms: _153  and  _155
REMARK   63  A    between atoms: _155  and  _156
REMARK   64  A    between atoms: _155  and  _158
REMARK   65  A    between atoms: _161  and  _163
REMARK   66  A    between atoms: _163  and  _164
REMARK   67  A    between atoms: _163  and  _166
REMARK   68  A    between atoms: _166  and  _167
REMARK   69  A    between atoms: _172  and  _173
REMARK   70  A    between atoms: _175  and  _177
REMARK   71  A    between atoms: _177  and  _178
REMARK   72  A    between atoms: _177  and  _180
REMARK   73  A    between atoms: _180  and  _181
REMARK   74  A    between atoms: _187  and  _189
REMARK   75  A    between atoms: _189  and  _190
REMARK   76  A    between atoms: _189  and  _192
REMARK   77  A    between atoms: _195  and  _197
REMARK   78  A    between atoms: _197  and  _198
REMARK   79  A    between atoms: _197  and  _200
REMARK   80  A    between atoms: _200  and  _201
REMARK   81  A    between atoms: _205  and  _206
REMARK   82  A    between atoms: _211  and  _213
REMARK   83  A    between atoms: _213  and  _214
REMARK   84  A    between atoms: _213  and  _216
REMARK   85  A    between atoms: _216  and  _217
REMARK   86  A    between atoms: _217  and  _218
REMARK   87  A    between atoms: _218  and  _219
REMARK   88  A    between atoms: _228  and  _230
REMARK   89  A    between atoms: _230  and  _231
REMARK   90  A    between atoms: _230  and  _233
REMARK   91  A    between atoms: _233  and  _234
REMARK   92  A    between atoms: _239  and  _240
REMARK   93  A    between atoms: _242  and  _244
REMARK   94  A    between atoms: _244  and  _245
REMARK   95  A    between atoms: _244  and  _247
REMARK   96  A    between atoms: _250  and  _252
REMARK   97  A    between atoms: _252  and  _253
REMARK   98  A    between atoms: _256  and  _258
REMARK   99  A    between atoms: _258  and  _259
REMARK  100  A    between atoms: _258  and  _261
REMARK  101  A    between atoms: _261  and  _262
REMARK  102  A    between atoms: _265  and  _267
REMARK  103  A    between atoms: _267  and  _268
REMARK  104  A    between atoms: _271  and  _273
REMARK  105  A    between atoms: _273  and  _274
REMARK  106  A    between atoms: _273  and  _276
REMARK  107  A    between atoms: _276  and  _277
REMARK  108  A    between atoms: _280  and  _282
REMARK  109  A    between atoms: _282  and  _283
REMARK  110  A    between atoms: _282  and  _285
REMARK  111  A    between atoms: _285  and  _286
REMARK  112  A    between atoms: _296  and  _298
REMARK  113  A    between atoms: _298  and  _299
REMARK  114  A    between atoms: _298  and  _301
REMARK  115  A    between atoms: _301  and  _302
REMARK  116  A    between atoms: _304  and  _306
REMARK  117  A    between atoms: _306  and  _307
REMARK  118  A    between atoms: _309  and  _311
REMARK  119  A    between atoms: _311  and  _312
REMARK                            x       y       z     vdW  Elec       q    Type
REMARK                         _______ _______ _______ _____ _____    ______ ____
ROOT
ATOM      1  O   HOH     1       8.174  88.436  26.152  0.00  0.00    +0.000 OA
ENDROOT
TORSDOF 0
REMARK  Name = ../refined-set-2016/3sk2/3sk2_pocket.pdb
REMARK  119 active torsions:
REMARK  status: ('A' for Active; 'I' for Inactive)
REMARK    1  A    between atoms: _1  and  _3
REMARK    2  A    between atoms: _3  and  _4
REMARK    3  A    between atoms: _3  and  _6
REMARK    4  A    between atoms: _6  and  _7
REMARK    5  A    between atoms: _7  and  _8
REMARK    6  A    between atoms: _11  and  _13
REMARK    7  A    between atoms: _13  and  _14
REMARK    8  A    between atoms: _13  and  _16
REMARK    9  A    between atoms: _16  and  _17
REMARK   10  A    between atoms: _17  and  _18
REMARK   11  A    between atoms: _20  and  _22
REMARK   12  A    between atoms: _22  and  _23
REMARK   13  A    between atoms: _22  and  _25
REMARK   14  A    between atoms: _25  and  _26
REMARK   15  A    between atoms: _31  and  _32
REMARK   16  A    between atoms: _34  and  _36
REMARK   17  A    between atoms: _36  and  _37
REMARK   18  A    between atoms: _36  and  _39
REMARK   19  A    between atoms: _39  and  _40
REMARK   20  A    between atoms: _43  and  _45
REMARK   21  A    between atoms: _45  and  _46
REMARK   22  A    between atoms: _45  and  _48
REMARK   23  A    between atoms: _51  and  _53
REMARK   24  A    between atoms: _53  and  _54
REMARK   25  A    between atoms: _53  and  _56
REMARK   26  A    between atoms: _56  and  _57
REMARK   27  A    between atoms: _63  and  _65
REMARK   28  A    between atoms: _65  and  _66
REMARK   29  A    between atoms: _68  and  _70
REMARK   30  A    between atoms: _70  and  _71
REMARK   31  A    between atoms: _70  and  _73
REMARK   32  A    between atoms: _73  and  _74
REMARK   33  A    between atoms: _77  and  _79
REMARK   34  A    between atoms: _79  and  _80
REMARK   35  A    between atoms: _79  and  _82
REMARK   36  A    between atoms: _82  and  _83
REMARK   37  A    between atoms: _83  and  _84
REMARK   38  A    between atoms: _84  and  _85
REMARK   39  A    between atoms: _94  and  _96
REMARK   40  A    between atoms: _96  and  _97
REMARK   41  A    between atoms: _96  and  _99
REMARK   42  A    between atoms: _102  and  _104
REMARK   43  A    between atoms: _104  and  _105
REMARK   44  A    between atoms: _104  and  _107
REMARK   45  A    between atoms: _110  and  _111
REMARK   46  A    between atoms: _116  and  _118
REMARK   47  A    between atoms: _118  and  _119
REMARK   48  A    between atoms: _118  and  _121
REMARK   49  A    between atoms: _121  and  _122
REMARK   50  A    between atoms: _125  and  _127
REMARK   51  A    between atoms: _127  and  _128
REMARK   52  A    between atoms: _127  and  _130
REMARK   53  A    between atoms: _130  and  _131
REMARK   54  A    between atoms: _135  and  _137
REMARK   55  A    between atoms: _137  and  _138
REMARK   56  A    between atoms: _137  and  _140
REMARK   57  A    between atoms: _140  and  _141
REMARK   58  A    between atoms: _144  and  _146
REMARK   59  A    between atoms: _146  and  _147
REMARK   60  A    between atoms: _146  and  _149
REMARK   61  A    between atoms: _149  and  _150
REMARK   62  A    between atoms: _153  and  _155
REMARK   63  A    between atoms: _155  and  _156
REMARK   64  A    between atoms: _155  and  _158
REMARK   65  A    between atoms: _161  and  _163
REMARK   66  A    between atoms: _163  and  _164
REMARK   67  A    between atoms: _163  and  _166
REMARK   68  A    between atoms: _166  and  _167
REMARK   69  A    between atoms: _172  and  _173
REMARK   70  A    between atoms: _175  and  _177
REMARK   71  A    between atoms: _177  and  _178
REMARK   72  A    between atoms: _177  and  _180
REMARK   73  A    between atoms: _180  and  _181
REMARK   74  A    between atoms: _187  and  _189
REMARK   75  A    between atoms: _189  and  _190
REMARK   76  A    between atoms: _189  and  _192
REMARK   77  A    between atoms: _195  and  _197
REMARK   78  A    between atoms: _197  and  _198
REMARK   79  A    between atoms: _197  and  _200
REMARK   80  A    between atoms: _200  and  _201
REMARK   81  A    between atoms: _205  and  _206
REMARK   82  A    between atoms: _211  and  _213
REMARK   83  A    between atoms: _213  and  _214
REMARK   84  A    between atoms: _213  and  _216
REMARK   85  A    between atoms: _216  and  _217
REMARK   86  A    between atoms: _217  and  _218
REMARK   87  A    between atoms: _218  and  _219
REMARK   88  A    between atoms: _228  and  _230
REMARK   89  A    between atoms: _230  and  _231
REMARK   90  A    between atoms: _230  and  _233
REMARK   91  A    between atoms: _233  and  _234
REMARK   92  A    between atoms: _239  and  _240
REMARK   93  A    between atoms: _242  and  _244
REMARK   94  A    between atoms: _244  and  _245
REMARK   95  A    between atoms: _244  and  _247
REMARK   96  A    between atoms: _250  and  _252
REMARK   97  A    between atoms: _252  and  _253
REMARK   98  A    between atoms: _256  and  _258
REMARK   99  A    between atoms: _258  and  _259
REMARK  100  A    between atoms: _258  and  _261
REMARK  101  A    between atoms: _261  and  _262
REMARK  102  A    between atoms: _265  and  _267
REMARK  103  A    between atoms: _267  and  _268
REMARK  104  A    between atoms: _271  and  _273
REMARK  105  A    between atoms: _273  and  _274
REMARK  106  A    between atoms: _273  and  _276
REMARK  107  A    between atoms: _276  and  _277
REMARK  108  A    between atoms: _280  and  _282
REMARK  109  A    between atoms: _282  and  _283
REMARK  110  A    between atoms: _282  and  _285
REMARK  111  A    between atoms: _285  and  _286
REMARK  112  A    between atoms: _296  and  _298
REMARK  113  A    between atoms: _298  and  _299
REMARK  114  A    between atoms: _298  and  _301
REMARK  115  A    between atoms: _301  and  _302
REMARK  116  A    between atoms: _304  and  _306
REMARK  117  A    between atoms: _306  and  _307
REMARK  118  A    between atoms: _309  and  _311
REMARK  119  A    between atoms: _311  and  _312
REMARK                            x       y       z     vdW  Elec       q    Type
REMARK                         _______ _______ _______ _____ _____    ______ ____
ROOT
ATOM      1  O   HOH     1      -5.174  81.472  26.552  0.00  0.00    +0.000 OA
ENDROOT
TORSDOF 0
REMARK  Name = ../refined-set-2016/3sk2/3sk2_pocket.pdb
REMARK  119 active torsions:
REMARK  status: ('A' for Active; 'I' for Inactive)
REMARK    1  A    between atoms: _1  and  _3
REMARK    2  A    between atoms: _3  and  _4
REMARK    3  A    between atoms: _3  and  _6
REMARK    4  A    between atoms: _6  and  _7
REMARK    5  A    between atoms: _7  and  _8
REMARK    6  A    between atoms: _11  and  _13
REMARK    7  A    between atoms: _13  and  _14
REMARK    8  A    between atoms: _13  and  _16
REMARK    9  A    between atoms: _16  and  _17
REMARK   10  A    between atoms: _17  and  _18
REMARK   11  A    between atoms: _20  and  _22
REMARK   12  A    between atoms: _22  and  _23
REMARK   13  A    between atoms: _22  and  _25
REMARK   14  A    between atoms: _25  and  _26
REMARK   15  A    between atoms: _31  and  _32
REMARK   16  A    between atoms: _34  and  _36
REMARK   17  A    between atoms: _36  and  _37
REMARK   18  A    between atoms: _36  and  _39
REMARK   19  A    between atoms: _39  and  _40
REMARK   20  A    between atoms: _43  and  _45
REMARK   21  A    between atoms: _45  and  _46
REMARK   22  A    between atoms: _45  and  _48
REMARK   23  A    between atoms: _51  and  _53
REMARK   24  A    between atoms: _53  and  _54
REMARK   25  A    between atoms: _53  and  _56
REMARK   26  A    between atoms: _56  and  _57
REMARK   27  A    between atoms: _63  and  _65
REMARK   28  A    between atoms: _65  and  _66
REMARK   29  A    between atoms: _68  and  _70
REMARK   30  A    between atoms: _70  and  _71
REMARK   31  A    between atoms: _70  and  _73
REMARK   32  A    between atoms: _73  and  _74
REMARK   33  A    between atoms: _77  and  _79
REMARK   34  A    between atoms: _79  and  _80
REMARK   35  A    between atoms: _79  and  _82
REMARK   36  A    between atoms: _82  and  _83
REMARK   37  A    between atoms: _83  and  _84
REMARK   38  A    between atoms: _84  and  _85
REMARK   39  A    between atoms: _94  and  _96
REMARK   40  A    between atoms: _96  and  _97
REMARK   41  A    between atoms: _96  and  _99
REMARK   42  A    between atoms: _102  and  _104
REMARK   43  A    between atoms: _104  and  _105
REMARK   44  A    between atoms: _104  and  _107
REMARK   45  A    between atoms: _110  and  _111
REMARK   46  A    between atoms: _116  and  _118
REMARK   47  A    between atoms: _118  and  _119
REMARK   48  A    between atoms: _118  and  _121
REMARK   49  A    between atoms: _121  and  _122
REMARK   50  A    between atoms: _125  and  _127
REMARK   51  A    between atoms: _127  and  _128
REMARK   52  A    between atoms: _127  and  _130
REMARK   53  A    between atoms: _130  and  _131
REMARK   54  A    between atoms: _135  and  _137
REMARK   55  A    between atoms: _137  and  _138
REMARK   56  A    between atoms: _137  and  _140
REMARK   57  A    between atoms: _140  and  _141
REMARK   58  A    between atoms: _144  and  _146
REMARK   59  A    between atoms: _146  and  _147
REMARK   60  A    between atoms: _146  and  _149
REMARK   61  A    between atoms: _149  and  _150
REMARK   62  A    between atoms: _153  and  _155
REMARK   63  A    between atoms: _155  and  _156
REMARK   64  A    between atoms: _155  and  _158
REMARK   65  A    between atoms: _161  and  _163
REMARK   66  A    between atoms: _163  and  _164
REMARK   67  A    between atoms: _163  and  _166
REMARK   68  A    between atoms: _166  and  _167
REMARK   69  A    between atoms: _172  and  _173
REMARK   70  A    between atoms: _175  and  _177
REMARK   71  A    between atoms: _177  and  _178
REMARK   72  A    between atoms: _177  and  _180
REMARK   73  A    between atoms: _180  and  _181
REMARK   74  A    between atoms: _187  and  _189
REMARK   75  A    between atoms: _189  and  _190
REMARK   76  A    between atoms: _189  and  _192
REMARK   77  A    between atoms: _195  and  _197
REMARK   78  A    between atoms: _197  and  _198
REMARK   79  A    between atoms: _197  and  _200
REMARK   80  A    between atoms: _200  and  _201
REMARK   81  A    between atoms: _205  and  _206
REMARK   82  A    between atoms: _211  and  _213
REMARK   83  A    between atoms: _213  and  _214
REMARK   84  A    between atoms: _213  and  _216
REMARK   85  A    between atoms: _216  and  _217
REMARK   86  A    between atoms: _217  and  _218
REMARK   87  A    between atoms: _218  and  _219
REMARK   88  A    between atoms: _228  and  _230
REMARK   89  A    between atoms: _230  and  _231
REMARK   90  A    between atoms: _230  and  _233
REMARK   91  A    between atoms: _233  and  _234
REMARK   92  A    between atoms: _239  and  _240
REMARK   93  A    between atoms: _242  and  _244
REMARK   94  A    between atoms: _244  and  _245
REMARK   95  A    between atoms: _244  and  _247
REMARK   96  A    between atoms: _250  and  _252
REMARK   97  A    between atoms: _252  and  _253
REMARK   98  A    between atoms: _256  and  _258
REMARK   99  A    between atoms: _258  and  _259
REMARK  100  A    between atoms: _258  and  _261
REMARK  101  A    between atoms: _261  and  _262
REMARK  102  A    between atoms: _265  and  _267
REMARK  103  A    between atoms: _267  and  _268
REMARK  104  A    between atoms: _271  and  _273
REMARK  105  A    between atoms: _273  and  _274
REMARK  106  A    between atoms: _273  and  _276
REMARK  107  A    between atoms: _276  and  _277
REMARK  108  A    between atoms: _280  and  _282
REMARK  109  A    between atoms: _282  and  _283
REMARK  110  A    between atoms: _282  and  _285
REMARK  111  A    between atoms: _285  and  _286
REMARK  112  A    between atoms: _296  and  _298
REMARK  113  A    between atoms: _298  and  _299
REMARK  114  A    between atoms: _298  and  _301
REMARK  115  A    between atoms: _301  and  _302
REMARK  116  A    between atoms: _304  and  _306
REMARK  117  A    between atoms: _306  and  _307
REMARK  118  A    between atoms: _309  and  _311
REMARK  119  A    between atoms: _311  and  _312
REMARK                            x       y       z     vdW  Elec       q    Type
REMARK                         _______ _______ _______ _____ _____    ______ ____
ROOT
ATOM      1  O   HOH     1      10.675  83.055  29.070  0.00  0.00    +0.000 OA
ENDROOT
TORSDOF 0
REMARK  Name = ../refined-set-2016/3sk2/3sk2_pocket.pdb
REMARK  119 active torsions:
REMARK  status: ('A' for Active; 'I' for Inactive)
REMARK    1  A    between atoms: _1  and  _3
REMARK    2  A    between atoms: _3  and  _4
REMARK    3  A    between atoms: _3  and  _6
REMARK    4  A    between atoms: _6  and  _7
REMARK    5  A    between atoms: _7  and  _8
REMARK    6  A    between atoms: _11  and  _13
REMARK    7  A    between atoms: _13  and  _14
REMARK    8  A    between atoms: _13  and  _16
REMARK    9  A    between atoms: _16  and  _17
REMARK   10  A    between atoms: _17  and  _18
REMARK   11  A    between atoms: _20  and  _22
REMARK   12  A    between atoms: _22  and  _23
REMARK   13  A    between atoms: _22  and  _25
REMARK   14  A    between atoms: _25  and  _26
REMARK   15  A    between atoms: _31  and  _32
REMARK   16  A    between atoms: _34  and  _36
REMARK   17  A    between atoms: _36  and  _37
REMARK   18  A    between atoms: _36  and  _39
REMARK   19  A    between atoms: _39  and  _40
REMARK   20  A    between atoms: _43  and  _45
REMARK   21  A    between atoms: _45  and  _46
REMARK   22  A    between atoms: _45  and  _48
REMARK   23  A    between atoms: _51  and  _53
REMARK   24  A    between atoms: _53  and  _54
REMARK   25  A    between atoms: _53  and  _56
REMARK   26  A    between atoms: _56  and  _57
REMARK   27  A    between atoms: _63  and  _65
REMARK   28  A    between atoms: _65  and  _66
REMARK   29  A    between atoms: _68  and  _70
REMARK   30  A    between atoms: _70  and  _71
REMARK   31  A    between atoms: _70  and  _73
REMARK   32  A    between atoms: _73  and  _74
REMARK   33  A    between atoms: _77  and  _79
REMARK   34  A    between atoms: _79  and  _80
REMARK   35  A    between atoms: _79  and  _82
REMARK   36  A    between atoms: _82  and  _83
REMARK   37  A    between atoms: _83  and  _84
REMARK   38  A    between atoms: _84  and  _85
REMARK   39  A    between atoms: _94  and  _96
REMARK   40  A    between atoms: _96  and  _97
REMARK   41  A    between atoms: _96  and  _99
REMARK   42  A    between atoms: _102  and  _104
REMARK   43  A    between atoms: _104  and  _105
REMARK   44  A    between atoms: _104  and  _107
REMARK   45  A    between atoms: _110  and  _111
REMARK   46  A    between atoms: _116  and  _118
REMARK   47  A    between atoms: _118  and  _119
REMARK   48  A    between atoms: _118  and  _121
REMARK   49  A    between atoms: _121  and  _122
REMARK   50  A    between atoms: _125  and  _127
REMARK   51  A    between atoms: _127  and  _128
REMARK   52  A    between atoms: _127  and  _130
REMARK   53  A    between atoms: _130  and  _131
REMARK   54  A    between atoms: _135  and  _137
REMARK   55  A    between atoms: _137  and  _138
REMARK   56  A    between atoms: _137  and  _140
REMARK   57  A    between atoms: _140  and  _141
REMARK   58  A    between atoms: _144  and  _146
REMARK   59  A    between atoms: _146  and  _147
REMARK   60  A    between atoms: _146  and  _149
REMARK   61  A    between atoms: _149  and  _150
REMARK   62  A    between atoms: _153  and  _155
REMARK   63  A    between atoms: _155  and  _156
REMARK   64  A    between atoms: _155  and  _158
REMARK   65  A    between atoms: _161  and  _163
REMARK   66  A    between atoms: _163  and  _164
REMARK   67  A    between atoms: _163  and  _166
REMARK   68  A    between atoms: _166  and  _167
REMARK   69  A    between atoms: _172  and  _173
REMARK   70  A    between atoms: _175  and  _177
REMARK   71  A    between atoms: _177  and  _178
REMARK   72  A    between atoms: _177  and  _180
REMARK   73  A    between atoms: _180  and  _181
REMARK   74  A    between atoms: _187  and  _189
REMARK   75  A    between atoms: _189  and  _190
REMARK   76  A    between atoms: _189  and  _192
REMARK   77  A    between atoms: _195  and  _197
REMARK   78  A    between atoms: _197  and  _198
REMARK   79  A    between atoms: _197  and  _200
REMARK   80  A    between atoms: _200  and  _201
REMARK   81  A    between atoms: _205  and  _206
REMARK   82  A    between atoms: _211  and  _213
REMARK   83  A    between atoms: _213  and  _214
REMARK   84  A    between atoms: _213  and  _216
REMARK   85  A    between atoms: _216  and  _217
REMARK   86  A    between atoms: _217  and  _218
REMARK   87  A    between atoms: _218  and  _219
REMARK   88  A    between atoms: _228  and  _230
REMARK   89  A    between atoms: _230  and  _231
REMARK   90  A    between atoms: _230  and  _233
REMARK   91  A    between atoms: _233  and  _234
REMARK   92  A    between atoms: _239  and  _240
REMARK   93  A    between atoms: _242  and  _244
REMARK   94  A    between atoms: _244  and  _245
REMARK   95  A    between atoms: _244  and  _247
REMARK   96  A    between atoms: _250  and  _252
REMARK   97  A    between atoms: _252  and  _253
REMARK   98  A    between atoms: _256  and  _258
REMARK   99  A    between atoms: _258  and  _259
REMARK  100  A    between atoms: _258  and  _261
REMARK  101  A    between atoms: _261  and  _262
REMARK  102  A    between atoms: _265  and  _267
REMARK  103  A    between atoms: _267  and  _268
REMARK  104  A    between atoms: _271  and  _273
REMARK  105  A    between atoms: _273  and  _274
REMARK  106  A    between atoms: _273  and  _276
REMARK  107  A    between atoms: _276  and  _277
REMARK  108  A    between atoms: _280  and  _282
REMARK  109  A    between atoms: _282  and  _283
REMARK  110  A    between atoms: _282  and  _285
REMARK  111  A    between atoms: _285  and  _286
REMARK  112  A    between atoms: _296  and  _298
REMARK  113  A    between atoms: _298  and  _299
REMARK  114  A    between atoms: _298  and  _301
REMARK  115  A    between atoms: _301  and  _302
REMARK  116  A    between atoms: _304  and  _306
REMARK  117  A    between atoms: _306  and  _307
REMARK  118  A    between atoms: _309  and  _311
REMARK  119  A    between atoms: _311  and  _312
REMARK                            x       y       z     vdW  Elec       q    Type
REMARK                         _______ _______ _______ _____ _____    ______ ____
ROOT
ATOM      1  O   HOH     1      -4.298  87.839  33.128  0.00  0.00    +0.000 OA
ENDROOT
TORSDOF 0
REMARK  Name = ../refined-set-2016/3sk2/3sk2_pocket.pdb
REMARK  119 active torsions:
REMARK  status: ('A' for Active; 'I' for Inactive)
REMARK    1  A    between atoms: _1  and  _3
REMARK    2  A    between atoms: _3  and  _4
REMARK    3  A    between atoms: _3  and  _6
REMARK    4  A    between atoms: _6  and  _7
REMARK    5  A    between atoms: _7  and  _8
REMARK    6  A    between atoms: _11  and  _13
REMARK    7  A    between atoms: _13  and  _14
REMARK    8  A    between atoms: _13  and  _16
REMARK    9  A    between atoms: _16  and  _17
REMARK   10  A    between atoms: _17  and  _18
REMARK   11  A    between atoms: _20  and  _22
REMARK   12  A    between atoms: _22  and  _23
REMARK   13  A    between atoms: _22  and  _25
REMARK   14  A    between atoms: _25  and  _26
REMARK   15  A    between atoms: _31  and  _32
REMARK   16  A    between atoms: _34  and  _36
REMARK   17  A    between atoms: _36  and  _37
REMARK   18  A    between atoms: _36  and  _39
REMARK   19  A    between atoms: _39  and  _40
REMARK   20  A    between atoms: _43  and  _45
REMARK   21  A    between atoms: _45  and  _46
REMARK   22  A    between atoms: _45  and  _48
REMARK   23  A    between atoms: _51  and  _53
REMARK   24  A    between atoms: _53  and  _54
REMARK   25  A    between atoms: _53  and  _56
REMARK   26  A    between atoms: _56  and  _57
REMARK   27  A    between atoms: _63  and  _65
REMARK   28  A    between atoms: _65  and  _66
REMARK   29  A    between atoms: _68  and  _70
REMARK   30  A    between atoms: _70  and  _71
REMARK   31  A    between atoms: _70  and  _73
REMARK   32  A    between atoms: _73  and  _74
REMARK   33  A    between atoms: _77  and  _79
REMARK   34  A    between atoms: _79  and  _80
REMARK   35  A    between atoms: _79  and  _82
REMARK   36  A    between atoms: _82  and  _83
REMARK   37  A    between atoms: _83  and  _84
REMARK   38  A    between atoms: _84  and  _85
REMARK   39  A    between atoms: _94  and  _96
REMARK   40  A    between atoms: _96  and  _97
REMARK   41  A    between atoms: _96  and  _99
REMARK   42  A    between atoms: _102  and  _104
REMARK   43  A    between atoms: _104  and  _105
REMARK   44  A    between atoms: _104  and  _107
REMARK   45  A    between atoms: _110  and  _111
REMARK   46  A    between atoms: _116  and  _118
REMARK   47  A    between atoms: _118  and  _119
REMARK   48  A    between atoms: _118  and  _121
REMARK   49  A    between atoms: _121  and  _122
REMARK   50  A    between atoms: _125  and  _127
REMARK   51  A    between atoms: _127  and  _128
REMARK   52  A    between atoms: _127  and  _130
REMARK   53  A    between atoms: _130  and  _131
REMARK   54  A    between atoms: _135  and  _137
REMARK   55  A    between atoms: _137  and  _138
REMARK   56  A    between atoms: _137  and  _140
REMARK   57  A    between atoms: _140  and  _141
REMARK   58  A    between atoms: _144  and  _146
REMARK   59  A    between atoms: _146  and  _147
REMARK   60  A    between atoms: _146  and  _149
REMARK   61  A    between atoms: _149  and  _150
REMARK   62  A    between atoms: _153  and  _155
REMARK   63  A    between atoms: _155  and  _156
REMARK   64  A    between atoms: _155  and  _158
REMARK   65  A    between atoms: _161  and  _163
REMARK   66  A    between atoms: _163  and  _164
REMARK   67  A    between atoms: _163  and  _166
REMARK   68  A    between atoms: _166  and  _167
REMARK   69  A    between atoms: _172  and  _173
REMARK   70  A    between atoms: _175  and  _177
REMARK   71  A    between atoms: _177  and  _178
REMARK   72  A    between atoms: _177  and  _180
REMARK   73  A    between atoms: _180  and  _181
REMARK   74  A    between atoms: _187  and  _189
REMARK   75  A    between atoms: _189  and  _190
REMARK   76  A    between atoms: _189  and  _192
REMARK   77  A    between atoms: _195  and  _197
REMARK   78  A    between atoms: _197  and  _198
REMARK   79  A    between atoms: _197  and  _200
REMARK   80  A    between atoms: _200  and  _201
REMARK   81  A    between atoms: _205  and  _206
REMARK   82  A    between atoms: _211  and  _213
REMARK   83  A    between atoms: _213  and  _214
REMARK   84  A    between atoms: _213  and  _216
REMARK   85  A    between atoms: _216  and  _217
REMARK   86  A    between atoms: _217  and  _218
REMARK   87  A    between atoms: _218  and  _219
REMARK   88  A    between atoms: _228  and  _230
REMARK   89  A    between atoms: _230  and  _231
REMARK   90  A    between atoms: _230  and  _233
REMARK   91  A    between atoms: _233  and  _234
REMARK   92  A    between atoms: _239  and  _240
REMARK   93  A    between atoms: _242  and  _244
REMARK   94  A    between atoms: _244  and  _245
REMARK   95  A    between atoms: _244  and  _247
REMARK   96  A    between atoms: _250  and  _252
REMARK   97  A    between atoms: _252  and  _253
REMARK   98  A    between atoms: _256  and  _258
REMARK   99  A    between atoms: _258  and  _259
REMARK  100  A    between atoms: _258  and  _261
REMARK  101  A    between atoms: _261  and  _262
REMARK  102  A    between atoms: _265  and  _267
REMARK  103  A    between atoms: _267  and  _268
REMARK  104  A    between atoms: _271  and  _273
REMARK  105  A    between atoms: _273  and  _274
REMARK  106  A    between atoms: _273  and  _276
REMARK  107  A    between atoms: _276  and  _277
REMARK  108  A    between atoms: _280  and  _282
REMARK  109  A    between atoms: _282  and  _283
REMARK  110  A    between atoms: _282  and  _285
REMARK  111  A    between atoms: _285  and  _286
REMARK  112  A    between atoms: _296  and  _298
REMARK  113  A    between atoms: _298  and  _299
REMARK  114  A    between atoms: _298  and  _301
REMARK  115  A    between atoms: _301  and  _302
REMARK  116  A    between atoms: _304  and  _306
REMARK  117  A    between atoms: _306  and  _307
REMARK  118  A    between atoms: _309  and  _311
REMARK  119  A    between atoms: _311  and  _312
REMARK                            x       y       z     vdW  Elec       q    Type
REMARK                         _______ _______ _______ _____ _____    ______ ____
ROOT
ATOM      1  O   HOH     1      -3.882  82.292  24.095  0.00  0.00    +0.000 OA
ENDROOT
TORSDOF 0
REMARK  Name = ../refined-set-2016/3sk2/3sk2_pocket.pdb
REMARK  119 active torsions:
REMARK  status: ('A' for Active; 'I' for Inactive)
REMARK    1  A    between atoms: _1  and  _3
REMARK    2  A    between atoms: _3  and  _4
REMARK    3  A    between atoms: _3  and  _6
REMARK    4  A    between atoms: _6  and  _7
REMARK    5  A    between atoms: _7  and  _8
REMARK    6  A    between atoms: _11  and  _13
REMARK    7  A    between atoms: _13  and  _14
REMARK    8  A    between atoms: _13  and  _16
REMARK    9  A    between atoms: _16  and  _17
REMARK   10  A    between atoms: _17  and  _18
REMARK   11  A    between atoms: _20  and  _22
REMARK   12  A    between atoms: _22  and  _23
REMARK   13  A    between atoms: _22  and  _25
REMARK   14  A    between atoms: _25  and  _26
REMARK   15  A    between atoms: _31  and  _32
REMARK   16  A    between atoms: _34  and  _36
REMARK   17  A    between atoms: _36  and  _37
REMARK   18  A    between atoms: _36  and  _39
REMARK   19  A    between atoms: _39  and  _40
REMARK   20  A    between atoms: _43  and  _45
REMARK   21  A    between atoms: _45  and  _46
REMARK   22  A    between atoms: _45  and  _48
REMARK   23  A    between atoms: _51  and  _53
REMARK   24  A    between atoms: _53  and  _54
REMARK   25  A    between atoms: _53  and  _56
REMARK   26  A    between atoms: _56  and  _57
REMARK   27  A    between atoms: _63  and  _65
REMARK   28  A    between atoms: _65  and  _66
REMARK   29  A    between atoms: _68  and  _70
REMARK   30  A    between atoms: _70  and  _71
REMARK   31  A    between atoms: _70  and  _73
REMARK   32  A    between atoms: _73  and  _74
REMARK   33  A    between atoms: _77  and  _79
REMARK   34  A    between atoms: _79  and  _80
REMARK   35  A    between atoms: _79  and  _82
REMARK   36  A    between atoms: _82  and  _83
REMARK   37  A    between atoms: _83  and  _84
REMARK   38  A    between atoms: _84  and  _85
REMARK   39  A    between atoms: _94  and  _96
REMARK   40  A    between atoms: _96  and  _97
REMARK   41  A    between atoms: _96  and  _99
REMARK   42  A    between atoms: _102  and  _104
REMARK   43  A    between atoms: _104  and  _105
REMARK   44  A    between atoms: _104  and  _107
REMARK   45  A    between atoms: _110  and  _111
REMARK   46  A    between atoms: _116  and  _118
REMARK   47  A    between atoms: _118  and  _119
REMARK   48  A    between atoms: _118  and  _121
REMARK   49  A    between atoms: _121  and  _122
REMARK   50  A    between atoms: _125  and  _127
REMARK   51  A    between atoms: _127  and  _128
REMARK   52  A    between atoms: _127  and  _130
REMARK   53  A    between atoms: _130  and  _131
REMARK   54  A    between atoms: _135  and  _137
REMARK   55  A    between atoms: _137  and  _138
REMARK   56  A    between atoms: _137  and  _140
REMARK   57  A    between atoms: _140  and  _141
REMARK   58  A    between atoms: _144  and  _146
REMARK   59  A    between atoms: _146  and  _147
REMARK   60  A    between atoms: _146  and  _149
REMARK   61  A    between atoms: _149  and  _150
REMARK   62  A    between atoms: _153  and  _155
REMARK   63  A    between atoms: _155  and  _156
REMARK   64  A    between atoms: _155  and  _158
REMARK   65  A    between atoms: _161  and  _163
REMARK   66  A    between atoms: _163  and  _164
REMARK   67  A    between atoms: _163  and  _166
REMARK   68  A    between atoms: _166  and  _167
REMARK   69  A    between atoms: _172  and  _173
REMARK   70  A    between atoms: _175  and  _177
REMARK   71  A    between atoms: _177  and  _178
REMARK   72  A    between atoms: _177  and  _180
REMARK   73  A    between atoms: _180  and  _181
REMARK   74  A    between atoms: _187  and  _189
REMARK   75  A    between atoms: _189  and  _190
REMARK   76  A    between atoms: _189  and  _192
REMARK   77  A    between atoms: _195  and  _197
REMARK   78  A    between atoms: _197  and  _198
REMARK   79  A    between atoms: _197  and  _200
REMARK   80  A    between atoms: _200  and  _201
REMARK   81  A    between atoms: _205  and  _206
REMARK   82  A    between atoms: _211  and  _213
REMARK   83  A    between atoms: _213  and  _214
REMARK   84  A    between atoms: _213  and  _216
REMARK   85  A    between atoms: _216  and  _217
REMARK   86  A    between atoms: _217  and  _218
REMARK   87  A    between atoms: _218  and  _219
REMARK   88  A    between atoms: _228  and  _230
REMARK   89  A    between atoms: _230  and  _231
REMARK   90  A    between atoms: _230  and  _233
REMARK   91  A    between atoms: _233  and  _234
REMARK   92  A    between atoms: _239  and  _240
REMARK   93  A    between atoms: _242  and  _244
REMARK   94  A    between atoms: _244  and  _245
REMARK   95  A    between atoms: _244  and  _247
REMARK   96  A    between atoms: _250  and  _252
REMARK   97  A    between atoms: _252  and  _253
REMARK   98  A    between atoms: _256  and  _258
REMARK   99  A    between atoms: _258  and  _259
REMARK  100  A    between atoms: _258  and  _261
REMARK  101  A    between atoms: _261  and  _262
REMARK  102  A    between atoms: _265  and  _267
REMARK  103  A    between atoms: _267  and  _268
REMARK  104  A    between atoms: _271  and  _273
REMARK  105  A    between atoms: _273  and  _274
REMARK  106  A    between atoms: _273  and  _276
REMARK  107  A    between atoms: _276  and  _277
REMARK  108  A    between atoms: _280  and  _282
REMARK  109  A    between atoms: _282  and  _283
REMARK  110  A    between atoms: _282  and  _285
REMARK  111  A    between atoms: _285  and  _286
REMARK  112  A    between atoms: _296  and  _298
REMARK  113  A    between atoms: _298  and  _299
REMARK  114  A    between atoms: _298  and  _301
REMARK  115  A    between atoms: _301  and  _302
REMARK  116  A    between atoms: _304  and  _306
REMARK  117  A    between atoms: _306  and  _307
REMARK  118  A    between atoms: _309  and  _311
REMARK  119  A    between atoms: _311  and  _312
REMARK                            x       y       z     vdW  Elec       q    Type
REMARK                         _______ _______ _______ _____ _____    ______ ____
ROOT
ATOM      1  O   HOH     1      -5.712  85.585  26.172  0.00  0.00    +0.000 OA
ENDROOT
TORSDOF 0
REMARK  Name = ../refined-set-2016/3sk2/3sk2_pocket.pdb
REMARK  119 active torsions:
REMARK  status: ('A' for Active; 'I' for Inactive)
REMARK    1  A    between atoms: _1  and  _3
REMARK    2  A    between atoms: _3  and  _4
REMARK    3  A    between atoms: _3  and  _6
REMARK    4  A    between atoms: _6  and  _7
REMARK    5  A    between atoms: _7  and  _8
REMARK    6  A    between atoms: _11  and  _13
REMARK    7  A    between atoms: _13  and  _14
REMARK    8  A    between atoms: _13  and  _16
REMARK    9  A    between atoms: _16  and  _17
REMARK   10  A    between atoms: _17  and  _18
REMARK   11  A    between atoms: _20  and  _22
REMARK   12  A    between atoms: _22  and  _23
REMARK   13  A    between atoms: _22  and  _25
REMARK   14  A    between atoms: _25  and  _26
REMARK   15  A    between atoms: _31  and  _32
REMARK   16  A    between atoms: _34  and  _36
REMARK   17  A    between atoms: _36  and  _37
REMARK   18  A    between atoms: _36  and  _39
REMARK   19  A    between atoms: _39  and  _40
REMARK   20  A    between atoms: _43  and  _45
REMARK   21  A    between atoms: _45  and  _46
REMARK   22  A    between atoms: _45  and  _48
REMARK   23  A    between atoms: _51  and  _53
REMARK   24  A    between atoms: _53  and  _54
REMARK   25  A    between atoms: _53  and  _56
REMARK   26  A    between atoms: _56  and  _57
REMARK   27  A    between atoms: _63  and  _65
REMARK   28  A    between atoms: _65  and  _66
REMARK   29  A    between atoms: _68  and  _70
REMARK   30  A    between atoms: _70  and  _71
REMARK   31  A    between atoms: _70  and  _73
REMARK   32  A    between atoms: _73  and  _74
REMARK   33  A    between atoms: _77  and  _79
REMARK   34  A    between atoms: _79  and  _80
REMARK   35  A    between atoms: _79  and  _82
REMARK   36  A    between atoms: _82  and  _83
REMARK   37  A    between atoms: _83  and  _84
REMARK   38  A    between atoms: _84  and  _85
REMARK   39  A    between atoms: _94  and  _96
REMARK   40  A    between atoms: _96  and  _97
REMARK   41  A    between atoms: _96  and  _99
REMARK   42  A    between atoms: _102  and  _104
REMARK   43  A    between atoms: _104  and  _105
REMARK   44  A    between atoms: _104  and  _107
REMARK   45  A    between atoms: _110  and  _111
REMARK   46  A    between atoms: _116  and  _118
REMARK   47  A    between atoms: _118  and  _119
REMARK   48  A    between atoms: _118  and  _121
REMARK   49  A    between atoms: _121  and  _122
REMARK   50  A    between atoms: _125  and  _127
REMARK   51  A    between atoms: _127  and  _128
REMARK   52  A    between atoms: _127  and  _130
REMARK   53  A    between atoms: _130  and  _131
REMARK   54  A    between atoms: _135  and  _137
REMARK   55  A    between atoms: _137  and  _138
REMARK   56  A    between atoms: _137  and  _140
REMARK   57  A    between atoms: _140  and  _141
REMARK   58  A    between atoms: _144  and  _146
REMARK   59  A    between atoms: _146  and  _147
REMARK   60  A    between atoms: _146  and  _149
REMARK   61  A    between atoms: _149  and  _150
REMARK   62  A    between atoms: _153  and  _155
REMARK   63  A    between atoms: _155  and  _156
REMARK   64  A    between atoms: _155  and  _158
REMARK   65  A    between atoms: _161  and  _163
REMARK   66  A    between atoms: _163  and  _164
REMARK   67  A    between atoms: _163  and  _166
REMARK   68  A    between atoms: _166  and  _167
REMARK   69  A    between atoms: _172  and  _173
REMARK   70  A    between atoms: _175  and  _177
REMARK   71  A    between atoms: _177  and  _178
REMARK   72  A    between atoms: _177  and  _180
REMARK   73  A    between atoms: _180  and  _181
REMARK   74  A    between atoms: _187  and  _189
REMARK   75  A    between atoms: _189  and  _190
REMARK   76  A    between atoms: _189  and  _192
REMARK   77  A    between atoms: _195  and  _197
REMARK   78  A    between atoms: _197  and  _198
REMARK   79  A    between atoms: _197  and  _200
REMARK   80  A    between atoms: _200  and  _201
REMARK   81  A    between atoms: _205  and  _206
REMARK   82  A    between atoms: _211  and  _213
REMARK   83  A    between atoms: _213  and  _214
REMARK   84  A    between atoms: _213  and  _216
REMARK   85  A    between atoms: _216  and  _217
REMARK   86  A    between atoms: _217  and  _218
REMARK   87  A    between atoms: _218  and  _219
REMARK   88  A    between atoms: _228  and  _230
REMARK   89  A    between atoms: _230  and  _231
REMARK   90  A    between atoms: _230  and  _233
REMARK   91  A    between atoms: _233  and  _234
REMARK   92  A    between atoms: _239  and  _240
REMARK   93  A    between atoms: _242  and  _244
REMARK   94  A    between atoms: _244  and  _245
REMARK   95  A    between atoms: _244  and  _247
REMARK   96  A    between atoms: _250  and  _252
REMARK   97  A    between atoms: _252  and  _253
REMARK   98  A    between atoms: _256  and  _258
REMARK   99  A    between atoms: _258  and  _259
REMARK  100  A    between atoms: _258  and  _261
REMARK  101  A    between atoms: _261  and  _262
REMARK  102  A    between atoms: _265  and  _267
REMARK  103  A    between atoms: _267  and  _268
REMARK  104  A    between atoms: _271  and  _273
REMARK  105  A    between atoms: _273  and  _274
REMARK  106  A    between atoms: _273  and  _276
REMARK  107  A    between atoms: _276  and  _277
REMARK  108  A    between atoms: _280  and  _282
REMARK  109  A    between atoms: _282  and  _283
REMARK  110  A    between atoms: _282  and  _285
REMARK  111  A    between atoms: _285  and  _286
REMARK  112  A    between atoms: _296  and  _298
REMARK  113  A    between atoms: _298  and  _299
REMARK  114  A    between atoms: _298  and  _301
REMARK  115  A    between atoms: _301  and  _302
REMARK  116  A    between atoms: _304  and  _306
REMARK  117  A    between atoms: _306  and  _307
REMARK  118  A    between atoms: _309  and  _311
REMARK  119  A    between atoms: _311  and  _312
REMARK                            x       y       z     vdW  Elec       q    Type
REMARK                         _______ _______ _______ _____ _____    ______ ____
ROOT
ATOM      1  O   HOH     1       9.465  83.225  31.604  0.00  0.00    +0.000 OA
ENDROOT
TORSDOF 0
REMARK  Name = ../refined-set-2016/3sk2/3sk2_pocket.pdb
REMARK  119 active torsions:
REMARK  status: ('A' for Active; 'I' for Inactive)
REMARK    1  A    between atoms: _1  and  _3
REMARK    2  A    between atoms: _3  and  _4
REMARK    3  A    between atoms: _3  and  _6
REMARK    4  A    between atoms: _6  and  _7
REMARK    5  A    between atoms: _7  and  _8
REMARK    6  A    between atoms: _11  and  _13
REMARK    7  A    between atoms: _13  and  _14
REMARK    8  A    between atoms: _13  and  _16
REMARK    9  A    between atoms: _16  and  _17
REMARK   10  A    between atoms: _17  and  _18
REMARK   11  A    between atoms: _20  and  _22
REMARK   12  A    between atoms: _22  and  _23
REMARK   13  A    between atoms: _22  and  _25
REMARK   14  A    between atoms: _25  and  _26
REMARK   15  A    between atoms: _31  and  _32
REMARK   16  A    between atoms: _34  and  _36
REMARK   17  A    between atoms: _36  and  _37
REMARK   18  A    between atoms: _36  and  _39
REMARK   19  A    between atoms: _39  and  _40
REMARK   20  A    between atoms: _43  and  _45
REMARK   21  A    between atoms: _45  and  _46
REMARK   22  A    between atoms: _45  and  _48
REMARK   23  A    between atoms: _51  and  _53
REMARK   24  A    between atoms: _53  and  _54
REMARK   25  A    between atoms: _53  and  _56
REMARK   26  A    between atoms: _56  and  _57
REMARK   27  A    between atoms: _63  and  _65
REMARK   28  A    between atoms: _65  and  _66
REMARK   29  A    between atoms: _68  and  _70
REMARK   30  A    between atoms: _70  and  _71
REMARK   31  A    between atoms: _70  and  _73
REMARK   32  A    between atoms: _73  and  _74
REMARK   33  A    between atoms: _77  and  _79
REMARK   34  A    between atoms: _79  and  _80
REMARK   35  A    between atoms: _79  and  _82
REMARK   36  A    between atoms: _82  and  _83
REMARK   37  A    between atoms: _83  and  _84
REMARK   38  A    between atoms: _84  and  _85
REMARK   39  A    between atoms: _94  and  _96
REMARK   40  A    between atoms: _96  and  _97
REMARK   41  A    between atoms: _96  and  _99
REMARK   42  A    between atoms: _102  and  _104
REMARK   43  A    between atoms: _104  and  _105
REMARK   44  A    between atoms: _104  and  _107
REMARK   45  A    between atoms: _110  and  _111
REMARK   46  A    between atoms: _116  and  _118
REMARK   47  A    between atoms: _118  and  _119
REMARK   48  A    between atoms: _118  and  _121
REMARK   49  A    between atoms: _121  and  _122
REMARK   50  A    between atoms: _125  and  _127
REMARK   51  A    between atoms: _127  and  _128
REMARK   52  A    between atoms: _127  and  _130
REMARK   53  A    between atoms: _130  and  _131
REMARK   54  A    between atoms: _135  and  _137
REMARK   55  A    between atoms: _137  and  _138
REMARK   56  A    between atoms: _137  and  _140
REMARK   57  A    between atoms: _140  and  _141
REMARK   58  A    between atoms: _144  and  _146
REMARK   59  A    between atoms: _146  and  _147
REMARK   60  A    between atoms: _146  and  _149
REMARK   61  A    between atoms: _149  and  _150
REMARK   62  A    between atoms: _153  and  _155
REMARK   63  A    between atoms: _155  and  _156
REMARK   64  A    between atoms: _155  and  _158
REMARK   65  A    between atoms: _161  and  _163
REMARK   66  A    between atoms: _163  and  _164
REMARK   67  A    between atoms: _163  and  _166
REMARK   68  A    between atoms: _166  and  _167
REMARK   69  A    between atoms: _172  and  _173
REMARK   70  A    between atoms: _175  and  _177
REMARK   71  A    between atoms: _177  and  _178
REMARK   72  A    between atoms: _177  and  _180
REMARK   73  A    between atoms: _180  and  _181
REMARK   74  A    between atoms: _187  and  _189
REMARK   75  A    between atoms: _189  and  _190
REMARK   76  A    between atoms: _189  and  _192
REMARK   77  A    between atoms: _195  and  _197
REMARK   78  A    between atoms: _197  and  _198
REMARK   79  A    between atoms: _197  and  _200
REMARK   80  A    between atoms: _200  and  _201
REMARK   81  A    between atoms: _205  and  _206
REMARK   82  A    between atoms: _211  and  _213
REMARK   83  A    between atoms: _213  and  _214
REMARK   84  A    between atoms: _213  and  _216
REMARK   85  A    between atoms: _216  and  _217
REMARK   86  A    between atoms: _217  and  _218
REMARK   87  A    between atoms: _218  and  _219
REMARK   88  A    between atoms: _228  and  _230
REMARK   89  A    between atoms: _230  and  _231
REMARK   90  A    between atoms: _230  and  _233
REMARK   91  A    between atoms: _233  and  _234
REMARK   92  A    between atoms: _239  and  _240
REMARK   93  A    between atoms: _242  and  _244
REMARK   94  A    between atoms: _244  and  _245
REMARK   95  A    between atoms: _244  and  _247
REMARK   96  A    between atoms: _250  and  _252
REMARK   97  A    between atoms: _252  and  _253
REMARK   98  A    between atoms: _256  and  _258
REMARK   99  A    between atoms: _258  and  _259
REMARK  100  A    between atoms: _258  and  _261
REMARK  101  A    between atoms: _261  and  _262
REMARK  102  A    between atoms: _265  and  _267
REMARK  103  A    between atoms: _267  and  _268
REMARK  104  A    between atoms: _271  and  _273
REMARK  105  A    between atoms: _273  and  _274
REMARK  106  A    between atoms: _273  and  _276
REMARK  107  A    between atoms: _276  and  _277
REMARK  108  A    between atoms: _280  and  _282
REMARK  109  A    between atoms: _282  and  _283
REMARK  110  A    between atoms: _282  and  _285
REMARK  111  A    between atoms: _285  and  _286
REMARK  112  A    between atoms: _296  and  _298
REMARK  113  A    between atoms: _298  and  _299
REMARK  114  A    between atoms: _298  and  _301
REMARK  115  A    between atoms: _301  and  _302
REMARK  116  A    between atoms: _304  and  _306
REMARK  117  A    between atoms: _306  and  _307
REMARK  118  A    between atoms: _309  and  _311
REMARK  119  A    between atoms: _311  and  _312
REMARK                            x       y       z     vdW  Elec       q    Type
REMARK                         _______ _______ _______ _____ _____    ______ ____
ROOT
ATOM      1  O   HOH     1      -7.231  86.937  27.528  0.00  0.00    +0.000 OA
ENDROOT
TORSDOF 0
REMARK  Name = ../refined-set-2016/3sk2/3sk2_pocket.pdb
REMARK  119 active torsions:
REMARK  status: ('A' for Active; 'I' for Inactive)
REMARK    1  A    between atoms: _1  and  _3
REMARK    2  A    between atoms: _3  and  _4
REMARK    3  A    between atoms: _3  and  _6
REMARK    4  A    between atoms: _6  and  _7
REMARK    5  A    between atoms: _7  and  _8
REMARK    6  A    between atoms: _11  and  _13
REMARK    7  A    between atoms: _13  and  _14
REMARK    8  A    between atoms: _13  and  _16
REMARK    9  A    between atoms: _16  and  _17
REMARK   10  A    between atoms: _17  and  _18
REMARK   11  A    between atoms: _20  and  _22
REMARK   12  A    between atoms: _22  and  _23
REMARK   13  A    between atoms: _22  and  _25
REMARK   14  A    between atoms: _25  and  _26
REMARK   15  A    between atoms: _31  and  _32
REMARK   16  A    between atoms: _34  and  _36
REMARK   17  A    between atoms: _36  and  _37
REMARK   18  A    between atoms: _36  and  _39
REMARK   19  A    between atoms: _39  and  _40
REMARK   20  A    between atoms: _43  and  _45
REMARK   21  A    between atoms: _45  and  _46
REMARK   22  A    between atoms: _45  and  _48
REMARK   23  A    between atoms: _51  and  _53
REMARK   24  A    between atoms: _53  and  _54
REMARK   25  A    between atoms: _53  and  _56
REMARK   26  A    between atoms: _56  and  _57
REMARK   27  A    between atoms: _63  and  _65
REMARK   28  A    between atoms: _65  and  _66
REMARK   29  A    between atoms: _68  and  _70
REMARK   30  A    between atoms: _70  and  _71
REMARK   31  A    between atoms: _70  and  _73
REMARK   32  A    between atoms: _73  and  _74
REMARK   33  A    between atoms: _77  and  _79
REMARK   34  A    between atoms: _79  and  _80
REMARK   35  A    between atoms: _79  and  _82
REMARK   36  A    between atoms: _82  and  _83
REMARK   37  A    between atoms: _83  and  _84
REMARK   38  A    between atoms: _84  and  _85
REMARK   39  A    between atoms: _94  and  _96
REMARK   40  A    between atoms: _96  and  _97
REMARK   41  A    between atoms: _96  and  _99
REMARK   42  A    between atoms: _102  and  _104
REMARK   43  A    between atoms: _104  and  _105
REMARK   44  A    between atoms: _104  and  _107
REMARK   45  A    between atoms: _110  and  _111
REMARK   46  A    between atoms: _116  and  _118
REMARK   47  A    between atoms: _118  and  _119
REMARK   48  A    between atoms: _118  and  _121
REMARK   49  A    between atoms: _121  and  _122
REMARK   50  A    between atoms: _125  and  _127
REMARK   51  A    between atoms: _127  and  _128
REMARK   52  A    between atoms: _127  and  _130
REMARK   53  A    between atoms: _130  and  _131
REMARK   54  A    between atoms: _135  and  _137
REMARK   55  A    between atoms: _137  and  _138
REMARK   56  A    between atoms: _137  and  _140
REMARK   57  A    between atoms: _140  and  _141
REMARK   58  A    between atoms: _144  and  _146
REMARK   59  A    between atoms: _146  and  _147
REMARK   60  A    between atoms: _146  and  _149
REMARK   61  A    between atoms: _149  and  _150
REMARK   62  A    between atoms: _153  and  _155
REMARK   63  A    between atoms: _155  and  _156
REMARK   64  A    between atoms: _155  and  _158
REMARK   65  A    between atoms: _161  and  _163
REMARK   66  A    between atoms: _163  and  _164
REMARK   67  A    between atoms: _163  and  _166
REMARK   68  A    between atoms: _166  and  _167
REMARK   69  A    between atoms: _172  and  _173
REMARK   70  A    between atoms: _175  and  _177
REMARK   71  A    between atoms: _177  and  _178
REMARK   72  A    between atoms: _177  and  _180
REMARK   73  A    between atoms: _180  and  _181
REMARK   74  A    between atoms: _187  and  _189
REMARK   75  A    between atoms: _189  and  _190
REMARK   76  A    between atoms: _189  and  _192
REMARK   77  A    between atoms: _195  and  _197
REMARK   78  A    between atoms: _197  and  _198
REMARK   79  A    between atoms: _197  and  _200
REMARK   80  A    between atoms: _200  and  _201
REMARK   81  A    between atoms: _205  and  _206
REMARK   82  A    between atoms: _211  and  _213
REMARK   83  A    between atoms: _213  and  _214
REMARK   84  A    between atoms: _213  and  _216
REMARK   85  A    between atoms: _216  and  _217
REMARK   86  A    between atoms: _217  and  _218
REMARK   87  A    between atoms: _218  and  _219
REMARK   88  A    between atoms: _228  and  _230
REMARK   89  A    between atoms: _230  and  _231
REMARK   90  A    between atoms: _230  and  _233
REMARK   91  A    between atoms: _233  and  _234
REMARK   92  A    between atoms: _239  and  _240
REMARK   93  A    between atoms: _242  and  _244
REMARK   94  A    between atoms: _244  and  _245
REMARK   95  A    between atoms: _244  and  _247
REMARK   96  A    between atoms: _250  and  _252
REMARK   97  A    between atoms: _252  and  _253
REMARK   98  A    between atoms: _256  and  _258
REMARK   99  A    between atoms: _258  and  _259
REMARK  100  A    between atoms: _258  and  _261
REMARK  101  A    between atoms: _261  and  _262
REMARK  102  A    between atoms: _265  and  _267
REMARK  103  A    between atoms: _267  and  _268
REMARK  104  A    between atoms: _271  and  _273
REMARK  105  A    between atoms: _273  and  _274
REMARK  106  A    between atoms: _273  and  _276
REMARK  107  A    between atoms: _276  and  _277
REMARK  108  A    between atoms: _280  and  _282
REMARK  109  A    between atoms: _282  and  _283
REMARK  110  A    between atoms: _282  and  _285
REMARK  111  A    between atoms: _285  and  _286
REMARK  112  A    between atoms: _296  and  _298
REMARK  113  A    between atoms: _298  and  _299
REMARK  114  A    between atoms: _298  and  _301
REMARK  115  A    between atoms: _301  and  _302
REMARK  116  A    between atoms: _304  and  _306
REMARK  117  A    between atoms: _306  and  _307
REMARK  118  A    between atoms: _309  and  _311
REMARK  119  A    between atoms: _311  and  _312
REMARK                            x       y       z     vdW  Elec       q    Type
REMARK                         _______ _______ _______ _____ _____    ______ ____
ROOT
ATOM      1  O   HOH     1       6.707  88.211  23.410  0.00  0.00    +0.000 OA
ENDROOT
TORSDOF 0
REMARK  Name = ../refined-set-2016/3sk2/3sk2_pocket.pdb
REMARK  119 active torsions:
REMARK  status: ('A' for Active; 'I' for Inactive)
REMARK    1  A    between atoms: _1  and  _3
REMARK    2  A    between atoms: _3  and  _4
REMARK    3  A    between atoms: _3  and  _6
REMARK    4  A    between atoms: _6  and  _7
REMARK    5  A    between atoms: _7  and  _8
REMARK    6  A    between atoms: _11  and  _13
REMARK    7  A    between atoms: _13  and  _14
REMARK    8  A    between atoms: _13  and  _16
REMARK    9  A    between atoms: _16  and  _17
REMARK   10  A    between atoms: _17  and  _18
REMARK   11  A    between atoms: _20  and  _22
REMARK   12  A    between atoms: _22  and  _23
REMARK   13  A    between atoms: _22  and  _25
REMARK   14  A    between atoms: _25  and  _26
REMARK   15  A    between atoms: _31  and  _32
REMARK   16  A    between atoms: _34  and  _36
REMARK   17  A    between atoms: _36  and  _37
REMARK   18  A    between atoms: _36  and  _39
REMARK   19  A    between atoms: _39  and  _40
REMARK   20  A    between atoms: _43  and  _45
REMARK   21  A    between atoms: _45  and  _46
REMARK   22  A    between atoms: _45  and  _48
REMARK   23  A    between atoms: _51  and  _53
REMARK   24  A    between atoms: _53  and  _54
REMARK   25  A    between atoms: _53  and  _56
REMARK   26  A    between atoms: _56  and  _57
REMARK   27  A    between atoms: _63  and  _65
REMARK   28  A    between atoms: _65  and  _66
REMARK   29  A    between atoms: _68  and  _70
REMARK   30  A    between atoms: _70  and  _71
REMARK   31  A    between atoms: _70  and  _73
REMARK   32  A    between atoms: _73  and  _74
REMARK   33  A    between atoms: _77  and  _79
REMARK   34  A    between atoms: _79  and  _80
REMARK   35  A    between atoms: _79  and  _82
REMARK   36  A    between atoms: _82  and  _83
REMARK   37  A    between atoms: _83  and  _84
REMARK   38  A    between atoms: _84  and  _85
REMARK   39  A    between atoms: _94  and  _96
REMARK   40  A    between atoms: _96  and  _97
REMARK   41  A    between atoms: _96  and  _99
REMARK   42  A    between atoms: _102  and  _104
REMARK   43  A    between atoms: _104  and  _105
REMARK   44  A    between atoms: _104  and  _107
REMARK   45  A    between atoms: _110  and  _111
REMARK   46  A    between atoms: _116  and  _118
REMARK   47  A    between atoms: _118  and  _119
REMARK   48  A    between atoms: _118  and  _121
REMARK   49  A    between atoms: _121  and  _122
REMARK   50  A    between atoms: _125  and  _127
REMARK   51  A    between atoms: _127  and  _128
REMARK   52  A    between atoms: _127  and  _130
REMARK   53  A    between atoms: _130  and  _131
REMARK   54  A    between atoms: _135  and  _137
REMARK   55  A    between atoms: _137  and  _138
REMARK   56  A    between atoms: _137  and  _140
REMARK   57  A    between atoms: _140  and  _141
REMARK   58  A    between atoms: _144  and  _146
REMARK   59  A    between atoms: _146  and  _147
REMARK   60  A    between atoms: _146  and  _149
REMARK   61  A    between atoms: _149  and  _150
REMARK   62  A    between atoms: _153  and  _155
REMARK   63  A    between atoms: _155  and  _156
REMARK   64  A    between atoms: _155  and  _158
REMARK   65  A    between atoms: _161  and  _163
REMARK   66  A    between atoms: _163  and  _164
REMARK   67  A    between atoms: _163  and  _166
REMARK   68  A    between atoms: _166  and  _167
REMARK   69  A    between atoms: _172  and  _173
REMARK   70  A    between atoms: _175  and  _177
REMARK   71  A    between atoms: _177  and  _178
REMARK   72  A    between atoms: _177  and  _180
REMARK   73  A    between atoms: _180  and  _181
REMARK   74  A    between atoms: _187  and  _189
REMARK   75  A    between atoms: _189  and  _190
REMARK   76  A    between atoms: _189  and  _192
REMARK   77  A    between atoms: _195  and  _197
REMARK   78  A    between atoms: _197  and  _198
REMARK   79  A    between atoms: _197  and  _200
REMARK   80  A    between atoms: _200  and  _201
REMARK   81  A    between atoms: _205  and  _206
REMARK   82  A    between atoms: _211  and  _213
REMARK   83  A    between atoms: _213  and  _214
REMARK   84  A    between atoms: _213  and  _216
REMARK   85  A    between atoms: _216  and  _217
REMARK   86  A    between atoms: _217  and  _218
REMARK   87  A    between atoms: _218  and  _219
REMARK   88  A    between atoms: _228  and  _230
REMARK   89  A    between atoms: _230  and  _231
REMARK   90  A    between atoms: _230  and  _233
REMARK   91  A    between atoms: _233  and  _234
REMARK   92  A    between atoms: _239  and  _240
REMARK   93  A    between atoms: _242  and  _244
REMARK   94  A    between atoms: _244  and  _245
REMARK   95  A    between atoms: _244  and  _247
REMARK   96  A    between atoms: _250  and  _252
REMARK   97  A    between atoms: _252  and  _253
REMARK   98  A    between atoms: _256  and  _258
REMARK   99  A    between atoms: _258  and  _259
REMARK  100  A    between atoms: _258  and  _261
REMARK  101  A    between atoms: _261  and  _262
REMARK  102  A    between atoms: _265  and  _267
REMARK  103  A    between atoms: _267  and  _268
REMARK  104  A    between atoms: _271  and  _273
REMARK  105  A    between atoms: _273  and  _274
REMARK  106  A    between atoms: _273  and  _276
REMARK  107  A    between atoms: _276  and  _277
REMARK  108  A    between atoms: _280  and  _282
REMARK  109  A    between atoms: _282  and  _283
REMARK  110  A    between atoms: _282  and  _285
REMARK  111  A    between atoms: _285  and  _286
REMARK  112  A    between atoms: _296  and  _298
REMARK  113  A    between atoms: _298  and  _299
REMARK  114  A    between atoms: _298  and  _301
REMARK  115  A    between atoms: _301  and  _302
REMARK  116  A    between atoms: _304  and  _306
REMARK  117  A    between atoms: _306  and  _307
REMARK  118  A    between atoms: _309  and  _311
REMARK  119  A    between atoms: _311  and  _312
REMARK                            x       y       z     vdW  Elec       q    Type
REMARK                         _______ _______ _______ _____ _____    ______ ____
ROOT
ATOM      1  O   HOH     1       9.100  91.650  22.196  0.00  0.00    +0.000 OA
ENDROOT
TORSDOF 0
REMARK  Name = ../refined-set-2016/3sk2/3sk2_pocket.pdb
REMARK  119 active torsions:
REMARK  status: ('A' for Active; 'I' for Inactive)
REMARK    1  A    between atoms: _1  and  _3
REMARK    2  A    between atoms: _3  and  _4
REMARK    3  A    between atoms: _3  and  _6
REMARK    4  A    between atoms: _6  and  _7
REMARK    5  A    between atoms: _7  and  _8
REMARK    6  A    between atoms: _11  and  _13
REMARK    7  A    between atoms: _13  and  _14
REMARK    8  A    between atoms: _13  and  _16
REMARK    9  A    between atoms: _16  and  _17
REMARK   10  A    between atoms: _17  and  _18
REMARK   11  A    between atoms: _20  and  _22
REMARK   12  A    between atoms: _22  and  _23
REMARK   13  A    between atoms: _22  and  _25
REMARK   14  A    between atoms: _25  and  _26
REMARK   15  A    between atoms: _31  and  _32
REMARK   16  A    between atoms: _34  and  _36
REMARK   17  A    between atoms: _36  and  _37
REMARK   18  A    between atoms: _36  and  _39
REMARK   19  A    between atoms: _39  and  _40
REMARK   20  A    between atoms: _43  and  _45
REMARK   21  A    between atoms: _45  and  _46
REMARK   22  A    between atoms: _45  and  _48
REMARK   23  A    between atoms: _51  and  _53
REMARK   24  A    between atoms: _53  and  _54
REMARK   25  A    between atoms: _53  and  _56
REMARK   26  A    between atoms: _56  and  _57
REMARK   27  A    between atoms: _63  and  _65
REMARK   28  A    between atoms: _65  and  _66
REMARK   29  A    between atoms: _68  and  _70
REMARK   30  A    between atoms: _70  and  _71
REMARK   31  A    between atoms: _70  and  _73
REMARK   32  A    between atoms: _73  and  _74
REMARK   33  A    between atoms: _77  and  _79
REMARK   34  A    between atoms: _79  and  _80
REMARK   35  A    between atoms: _79  and  _82
REMARK   36  A    between atoms: _82  and  _83
REMARK   37  A    between atoms: _83  and  _84
REMARK   38  A    between atoms: _84  and  _85
REMARK   39  A    between atoms: _94  and  _96
REMARK   40  A    between atoms: _96  and  _97
REMARK   41  A    between atoms: _96  and  _99
REMARK   42  A    between atoms: _102  and  _104
REMARK   43  A    between atoms: _104  and  _105
REMARK   44  A    between atoms: _104  and  _107
REMARK   45  A    between atoms: _110  and  _111
REMARK   46  A    between atoms: _116  and  _118
REMARK   47  A    between atoms: _118  and  _119
REMARK   48  A    between atoms: _118  and  _121
REMARK   49  A    between atoms: _121  and  _122
REMARK   50  A    between atoms: _125  and  _127
REMARK   51  A    between atoms: _127  and  _128
REMARK   52  A    between atoms: _127  and  _130
REMARK   53  A    between atoms: _130  and  _131
REMARK   54  A    between atoms: _135  and  _137
REMARK   55  A    between atoms: _137  and  _138
REMARK   56  A    between atoms: _137  and  _140
REMARK   57  A    between atoms: _140  and  _141
REMARK   58  A    between atoms: _144  and  _146
REMARK   59  A    between atoms: _146  and  _147
REMARK   60  A    between atoms: _146  and  _149
REMARK   61  A    between atoms: _149  and  _150
REMARK   62  A    between atoms: _153  and  _155
REMARK   63  A    between atoms: _155  and  _156
REMARK   64  A    between atoms: _155  and  _158
REMARK   65  A    between atoms: _161  and  _163
REMARK   66  A    between atoms: _163  and  _164
REMARK   67  A    between atoms: _163  and  _166
REMARK   68  A    between atoms: _166  and  _167
REMARK   69  A    between atoms: _172  and  _173
REMARK   70  A    between atoms: _175  and  _177
REMARK   71  A    between atoms: _177  and  _178
REMARK   72  A    between atoms: _177  and  _180
REMARK   73  A    between atoms: _180  and  _181
REMARK   74  A    between atoms: _187  and  _189
REMARK   75  A    between atoms: _189  and  _190
REMARK   76  A    between atoms: _189  and  _192
REMARK   77  A    between atoms: _195  and  _197
REMARK   78  A    between atoms: _197  and  _198
REMARK   79  A    between atoms: _197  and  _200
REMARK   80  A    between atoms: _200  and  _201
REMARK   81  A    between atoms: _205  and  _206
REMARK   82  A    between atoms: _211  and  _213
REMARK   83  A    between atoms: _213  and  _214
REMARK   84  A    between atoms: _213  and  _216
REMARK   85  A    between atoms: _216  and  _217
REMARK   86  A    between atoms: _217  and  _218
REMARK   87  A    between atoms: _218  and  _219
REMARK   88  A    between atoms: _228  and  _230
REMARK   89  A    between atoms: _230  and  _231
REMARK   90  A    between atoms: _230  and  _233
REMARK   91  A    between atoms: _233  and  _234
REMARK   92  A    between atoms: _239  and  _240
REMARK   93  A    between atoms: _242  and  _244
REMARK   94  A    between atoms: _244  and  _245
REMARK   95  A    between atoms: _244  and  _247
REMARK   96  A    between atoms: _250  and  _252
REMARK   97  A    between atoms: _252  and  _253
REMARK   98  A    between atoms: _256  and  _258
REMARK   99  A    between atoms: _258  and  _259
REMARK  100  A    between atoms: _258  and  _261
REMARK  101  A    between atoms: _261  and  _262
REMARK  102  A    between atoms: _265  and  _267
REMARK  103  A    between atoms: _267  and  _268
REMARK  104  A    between atoms: _271  and  _273
REMARK  105  A    between atoms: _273  and  _274
REMARK  106  A    between atoms: _273  and  _276
REMARK  107  A    between atoms: _276  and  _277
REMARK  108  A    between atoms: _280  and  _282
REMARK  109  A    between atoms: _282  and  _283
REMARK  110  A    between atoms: _282  and  _285
REMARK  111  A    between atoms: _285  and  _286
REMARK  112  A    between atoms: _296  and  _298
REMARK  113  A    between atoms: _298  and  _299
REMARK  114  A    between atoms: _298  and  _301
REMARK  115  A    between atoms: _301  and  _302
REMARK  116  A    between atoms: _304  and  _306
REMARK  117  A    between atoms: _306  and  _307
REMARK  118  A    between atoms: _309  and  _311
REMARK  119  A    between atoms: _311  and  _312
REMARK                            x       y       z     vdW  Elec       q    Type
REMARK                         _______ _______ _______ _____ _____    ______ ____
ROOT
ATOM      1  O   HOH     1       2.531  89.763  19.991  0.00  0.00    +0.000 OA
ENDROOT
TORSDOF 0
REMARK  Name = ../refined-set-2016/3sk2/3sk2_pocket.pdb
REMARK  119 active torsions:
REMARK  status: ('A' for Active; 'I' for Inactive)
REMARK    1  A    between atoms: _1  and  _3
REMARK    2  A    between atoms: _3  and  _4
REMARK    3  A    between atoms: _3  and  _6
REMARK    4  A    between atoms: _6  and  _7
REMARK    5  A    between atoms: _7  and  _8
REMARK    6  A    between atoms: _11  and  _13
REMARK    7  A    between atoms: _13  and  _14
REMARK    8  A    between atoms: _13  and  _16
REMARK    9  A    between atoms: _16  and  _17
REMARK   10  A    between atoms: _17  and  _18
REMARK   11  A    between atoms: _20  and  _22
REMARK   12  A    between atoms: _22  and  _23
REMARK   13  A    between atoms: _22  and  _25
REMARK   14  A    between atoms: _25  and  _26
REMARK   15  A    between atoms: _31  and  _32
REMARK   16  A    between atoms: _34  and  _36
REMARK   17  A    between atoms: _36  and  _37
REMARK   18  A    between atoms: _36  and  _39
REMARK   19  A    between atoms: _39  and  _40
REMARK   20  A    between atoms: _43  and  _45
REMARK   21  A    between atoms: _45  and  _46
REMARK   22  A    between atoms: _45  and  _48
REMARK   23  A    between atoms: _51  and  _53
REMARK   24  A    between atoms: _53  and  _54
REMARK   25  A    between atoms: _53  and  _56
REMARK   26  A    between atoms: _56  and  _57
REMARK   27  A    between atoms: _63  and  _65
REMARK   28  A    between atoms: _65  and  _66
REMARK   29  A    between atoms: _68  and  _70
REMARK   30  A    between atoms: _70  and  _71
REMARK   31  A    between atoms: _70  and  _73
REMARK   32  A    between atoms: _73  and  _74
REMARK   33  A    between atoms: _77  and  _79
REMARK   34  A    between atoms: _79  and  _80
REMARK   35  A    between atoms: _79  and  _82
REMARK   36  A    between atoms: _82  and  _83
REMARK   37  A    between atoms: _83  and  _84
REMARK   38  A    between atoms: _84  and  _85
REMARK   39  A    between atoms: _94  and  _96
REMARK   40  A    between atoms: _96  and  _97
REMARK   41  A    between atoms: _96  and  _99
REMARK   42  A    between atoms: _102  and  _104
REMARK   43  A    between atoms: _104  and  _105
REMARK   44  A    between atoms: _104  and  _107
REMARK   45  A    between atoms: _110  and  _111
REMARK   46  A    between atoms: _116  and  _118
REMARK   47  A    between atoms: _118  and  _119
REMARK   48  A    between atoms: _118  and  _121
REMARK   49  A    between atoms: _121  and  _122
REMARK   50  A    between atoms: _125  and  _127
REMARK   51  A    between atoms: _127  and  _128
REMARK   52  A    between atoms: _127  and  _130
REMARK   53  A    between atoms: _130  and  _131
REMARK   54  A    between atoms: _135  and  _137
REMARK   55  A    between atoms: _137  and  _138
REMARK   56  A    between atoms: _137  and  _140
REMARK   57  A    between atoms: _140  and  _141
REMARK   58  A    between atoms: _144  and  _146
REMARK   59  A    between atoms: _146  and  _147
REMARK   60  A    between atoms: _146  and  _149
REMARK   61  A    between atoms: _149  and  _150
REMARK   62  A    between atoms: _153  and  _155
REMARK   63  A    between atoms: _155  and  _156
REMARK   64  A    between atoms: _155  and  _158
REMARK   65  A    between atoms: _161  and  _163
REMARK   66  A    between atoms: _163  and  _164
REMARK   67  A    between atoms: _163  and  _166
REMARK   68  A    between atoms: _166  and  _167
REMARK   69  A    between atoms: _172  and  _173
REMARK   70  A    between atoms: _175  and  _177
REMARK   71  A    between atoms: _177  and  _178
REMARK   72  A    between atoms: _177  and  _180
REMARK   73  A    between atoms: _180  and  _181
REMARK   74  A    between atoms: _187  and  _189
REMARK   75  A    between atoms: _189  and  _190
REMARK   76  A    between atoms: _189  and  _192
REMARK   77  A    between atoms: _195  and  _197
REMARK   78  A    between atoms: _197  and  _198
REMARK   79  A    between atoms: _197  and  _200
REMARK   80  A    between atoms: _200  and  _201
REMARK   81  A    between atoms: _205  and  _206
REMARK   82  A    between atoms: _211  and  _213
REMARK   83  A    between atoms: _213  and  _214
REMARK   84  A    between atoms: _213  and  _216
REMARK   85  A    between atoms: _216  and  _217
REMARK   86  A    between atoms: _217  and  _218
REMARK   87  A    between atoms: _218  and  _219
REMARK   88  A    between atoms: _228  and  _230
REMARK   89  A    between atoms: _230  and  _231
REMARK   90  A    between atoms: _230  and  _233
REMARK   91  A    between atoms: _233  and  _234
REMARK   92  A    between atoms: _239  and  _240
REMARK   93  A    between atoms: _242  and  _244
REMARK   94  A    between atoms: _244  and  _245
REMARK   95  A    between atoms: _244  and  _247
REMARK   96  A    between atoms: _250  and  _252
REMARK   97  A    between atoms: _252  and  _253
REMARK   98  A    between atoms: _256  and  _258
REMARK   99  A    between atoms: _258  and  _259
REMARK  100  A    between atoms: _258  and  _261
REMARK  101  A    between atoms: _261  and  _262
REMARK  102  A    between atoms: _265  and  _267
REMARK  103  A    between atoms: _267  and  _268
REMARK  104  A    between atoms: _271  and  _273
REMARK  105  A    between atoms: _273  and  _274
REMARK  106  A    between atoms: _273  and  _276
REMARK  107  A    between atoms: _276  and  _277
REMARK  108  A    between atoms: _280  and  _282
REMARK  109  A    between atoms: _282  and  _283
REMARK  110  A    between atoms: _282  and  _285
REMARK  111  A    between atoms: _285  and  _286
REMARK  112  A    between atoms: _296  and  _298
REMARK  113  A    between atoms: _298  and  _299
REMARK  114  A    between atoms: _298  and  _301
REMARK  115  A    between atoms: _301  and  _302
REMARK  116  A    between atoms: _304  and  _306
REMARK  117  A    between atoms: _306  and  _307
REMARK  118  A    between atoms: _309  and  _311
REMARK  119  A    between atoms: _311  and  _312
REMARK                            x       y       z     vdW  Elec       q    Type
REMARK                         _______ _______ _______ _____ _____    ______ ____
ROOT
ATOM      1  O   HOH     1       7.300  88.154  15.858  0.00  0.00    +0.000 OA
ENDROOT
TORSDOF 0
REMARK  Name = ../refined-set-2016/3sk2/3sk2_pocket.pdb
REMARK  119 active torsions:
REMARK  status: ('A' for Active; 'I' for Inactive)
REMARK    1  A    between atoms: _1  and  _3
REMARK    2  A    between atoms: _3  and  _4
REMARK    3  A    between atoms: _3  and  _6
REMARK    4  A    between atoms: _6  and  _7
REMARK    5  A    between atoms: _7  and  _8
REMARK    6  A    between atoms: _11  and  _13
REMARK    7  A    between atoms: _13  and  _14
REMARK    8  A    between atoms: _13  and  _16
REMARK    9  A    between atoms: _16  and  _17
REMARK   10  A    between atoms: _17  and  _18
REMARK   11  A    between atoms: _20  and  _22
REMARK   12  A    between atoms: _22  and  _23
REMARK   13  A    between atoms: _22  and  _25
REMARK   14  A    between atoms: _25  and  _26
REMARK   15  A    between atoms: _31  and  _32
REMARK   16  A    between atoms: _34  and  _36
REMARK   17  A    between atoms: _36  and  _37
REMARK   18  A    between atoms: _36  and  _39
REMARK   19  A    between atoms: _39  and  _40
REMARK   20  A    between atoms: _43  and  _45
REMARK   21  A    between atoms: _45  and  _46
REMARK   22  A    between atoms: _45  and  _48
REMARK   23  A    between atoms: _51  and  _53
REMARK   24  A    between atoms: _53  and  _54
REMARK   25  A    between atoms: _53  and  _56
REMARK   26  A    between atoms: _56  and  _57
REMARK   27  A    between atoms: _63  and  _65
REMARK   28  A    between atoms: _65  and  _66
REMARK   29  A    between atoms: _68  and  _70
REMARK   30  A    between atoms: _70  and  _71
REMARK   31  A    between atoms: _70  and  _73
REMARK   32  A    between atoms: _73  and  _74
REMARK   33  A    between atoms: _77  and  _79
REMARK   34  A    between atoms: _79  and  _80
REMARK   35  A    between atoms: _79  and  _82
REMARK   36  A    between atoms: _82  and  _83
REMARK   37  A    between atoms: _83  and  _84
REMARK   38  A    between atoms: _84  and  _85
REMARK   39  A    between atoms: _94  and  _96
REMARK   40  A    between atoms: _96  and  _97
REMARK   41  A    between atoms: _96  and  _99
REMARK   42  A    between atoms: _102  and  _104
REMARK   43  A    between atoms: _104  and  _105
REMARK   44  A    between atoms: _104  and  _107
REMARK   45  A    between atoms: _110  and  _111
REMARK   46  A    between atoms: _116  and  _118
REMARK   47  A    between atoms: _118  and  _119
REMARK   48  A    between atoms: _118  and  _121
REMARK   49  A    between atoms: _121  and  _122
REMARK   50  A    between atoms: _125  and  _127
REMARK   51  A    between atoms: _127  and  _128
REMARK   52  A    between atoms: _127  and  _130
REMARK   53  A    between atoms: _130  and  _131
REMARK   54  A    between atoms: _135  and  _137
REMARK   55  A    between atoms: _137  and  _138
REMARK   56  A    between atoms: _137  and  _140
REMARK   57  A    between atoms: _140  and  _141
REMARK   58  A    between atoms: _144  and  _146
REMARK   59  A    between atoms: _146  and  _147
REMARK   60  A    between atoms: _146  and  _149
REMARK   61  A    between atoms: _149  and  _150
REMARK   62  A    between atoms: _153  and  _155
REMARK   63  A    between atoms: _155  and  _156
REMARK   64  A    between atoms: _155  and  _158
REMARK   65  A    between atoms: _161  and  _163
REMARK   66  A    between atoms: _163  and  _164
REMARK   67  A    between atoms: _163  and  _166
REMARK   68  A    between atoms: _166  and  _167
REMARK   69  A    between atoms: _172  and  _173
REMARK   70  A    between atoms: _175  and  _177
REMARK   71  A    between atoms: _177  and  _178
REMARK   72  A    between atoms: _177  and  _180
REMARK   73  A    between atoms: _180  and  _181
REMARK   74  A    between atoms: _187  and  _189
REMARK   75  A    between atoms: _189  and  _190
REMARK   76  A    between atoms: _189  and  _192
REMARK   77  A    between atoms: _195  and  _197
REMARK   78  A    between atoms: _197  and  _198
REMARK   79  A    between atoms: _197  and  _200
REMARK   80  A    between atoms: _200  and  _201
REMARK   81  A    between atoms: _205  and  _206
REMARK   82  A    between atoms: _211  and  _213
REMARK   83  A    between atoms: _213  and  _214
REMARK   84  A    between atoms: _213  and  _216
REMARK   85  A    between atoms: _216  and  _217
REMARK   86  A    between atoms: _217  and  _218
REMARK   87  A    between atoms: _218  and  _219
REMARK   88  A    between atoms: _228  and  _230
REMARK   89  A    between atoms: _230  and  _231
REMARK   90  A    between atoms: _230  and  _233
REMARK   91  A    between atoms: _233  and  _234
REMARK   92  A    between atoms: _239  and  _240
REMARK   93  A    between atoms: _242  and  _244
REMARK   94  A    between atoms: _244  and  _245
REMARK   95  A    between atoms: _244  and  _247
REMARK   96  A    between atoms: _250  and  _252
REMARK   97  A    between atoms: _252  and  _253
REMARK   98  A    between atoms: _256  and  _258
REMARK   99  A    between atoms: _258  and  _259
REMARK  100  A    between atoms: _258  and  _261
REMARK  101  A    between atoms: _261  and  _262
REMARK  102  A    between atoms: _265  and  _267
REMARK  103  A    between atoms: _267  and  _268
REMARK  104  A    between atoms: _271  and  _273
REMARK  105  A    between atoms: _273  and  _274
REMARK  106  A    between atoms: _273  and  _276
REMARK  107  A    between atoms: _276  and  _277
REMARK  108  A    between atoms: _280  and  _282
REMARK  109  A    between atoms: _282  and  _283
REMARK  110  A    between atoms: _282  and  _285
REMARK  111  A    between atoms: _285  and  _286
REMARK  112  A    between atoms: _296  and  _298
REMARK  113  A    between atoms: _298  and  _299
REMARK  114  A    between atoms: _298  and  _301
REMARK  115  A    between atoms: _301  and  _302
REMARK  116  A    between atoms: _304  and  _306
REMARK  117  A    between atoms: _306  and  _307
REMARK  118  A    between atoms: _309  and  _311
REMARK  119  A    between atoms: _311  and  _312
REMARK                            x       y       z     vdW  Elec       q    Type
REMARK                         _______ _______ _______ _____ _____    ______ ____
ROOT
ATOM      1  O   HOH     1      -9.408  85.064  20.416  0.00  0.00    +0.000 OA
ENDROOT
TORSDOF 0
REMARK  Name = ../refined-set-2016/3sk2/3sk2_pocket.pdb
REMARK  119 active torsions:
REMARK  status: ('A' for Active; 'I' for Inactive)
REMARK    1  A    between atoms: _1  and  _3
REMARK    2  A    between atoms: _3  and  _4
REMARK    3  A    between atoms: _3  and  _6
REMARK    4  A    between atoms: _6  and  _7
REMARK    5  A    between atoms: _7  and  _8
REMARK    6  A    between atoms: _11  and  _13
REMARK    7  A    between atoms: _13  and  _14
REMARK    8  A    between atoms: _13  and  _16
REMARK    9  A    between atoms: _16  and  _17
REMARK   10  A    between atoms: _17  and  _18
REMARK   11  A    between atoms: _20  and  _22
REMARK   12  A    between atoms: _22  and  _23
REMARK   13  A    between atoms: _22  and  _25
REMARK   14  A    between atoms: _25  and  _26
REMARK   15  A    between atoms: _31  and  _32
REMARK   16  A    between atoms: _34  and  _36
REMARK   17  A    between atoms: _36  and  _37
REMARK   18  A    between atoms: _36  and  _39
REMARK   19  A    between atoms: _39  and  _40
REMARK   20  A    between atoms: _43  and  _45
REMARK   21  A    between atoms: _45  and  _46
REMARK   22  A    between atoms: _45  and  _48
REMARK   23  A    between atoms: _51  and  _53
REMARK   24  A    between atoms: _53  and  _54
REMARK   25  A    between atoms: _53  and  _56
REMARK   26  A    between atoms: _56  and  _57
REMARK   27  A    between atoms: _63  and  _65
REMARK   28  A    between atoms: _65  and  _66
REMARK   29  A    between atoms: _68  and  _70
REMARK   30  A    between atoms: _70  and  _71
REMARK   31  A    between atoms: _70  and  _73
REMARK   32  A    between atoms: _73  and  _74
REMARK   33  A    between atoms: _77  and  _79
REMARK   34  A    between atoms: _79  and  _80
REMARK   35  A    between atoms: _79  and  _82
REMARK   36  A    between atoms: _82  and  _83
REMARK   37  A    between atoms: _83  and  _84
REMARK   38  A    between atoms: _84  and  _85
REMARK   39  A    between atoms: _94  and  _96
REMARK   40  A    between atoms: _96  and  _97
REMARK   41  A    between atoms: _96  and  _99
REMARK   42  A    between atoms: _102  and  _104
REMARK   43  A    between atoms: _104  and  _105
REMARK   44  A    between atoms: _104  and  _107
REMARK   45  A    between atoms: _110  and  _111
REMARK   46  A    between atoms: _116  and  _118
REMARK   47  A    between atoms: _118  and  _119
REMARK   48  A    between atoms: _118  and  _121
REMARK   49  A    between atoms: _121  and  _122
REMARK   50  A    between atoms: _125  and  _127
REMARK   51  A    between atoms: _127  and  _128
REMARK   52  A    between atoms: _127  and  _130
REMARK   53  A    between atoms: _130  and  _131
REMARK   54  A    between atoms: _135  and  _137
REMARK   55  A    between atoms: _137  and  _138
REMARK   56  A    between atoms: _137  and  _140
REMARK   57  A    between atoms: _140  and  _141
REMARK   58  A    between atoms: _144  and  _146
REMARK   59  A    between atoms: _146  and  _147
REMARK   60  A    between atoms: _146  and  _149
REMARK   61  A    between atoms: _149  and  _150
REMARK   62  A    between atoms: _153  and  _155
REMARK   63  A    between atoms: _155  and  _156
REMARK   64  A    between atoms: _155  and  _158
REMARK   65  A    between atoms: _161  and  _163
REMARK   66  A    between atoms: _163  and  _164
REMARK   67  A    between atoms: _163  and  _166
REMARK   68  A    between atoms: _166  and  _167
REMARK   69  A    between atoms: _172  and  _173
REMARK   70  A    between atoms: _175  and  _177
REMARK   71  A    between atoms: _177  and  _178
REMARK   72  A    between atoms: _177  and  _180
REMARK   73  A    between atoms: _180  and  _181
REMARK   74  A    between atoms: _187  and  _189
REMARK   75  A    between atoms: _189  and  _190
REMARK   76  A    between atoms: _189  and  _192
REMARK   77  A    between atoms: _195  and  _197
REMARK   78  A    between atoms: _197  and  _198
REMARK   79  A    between atoms: _197  and  _200
REMARK   80  A    between atoms: _200  and  _201
REMARK   81  A    between atoms: _205  and  _206
REMARK   82  A    between atoms: _211  and  _213
REMARK   83  A    between atoms: _213  and  _214
REMARK   84  A    between atoms: _213  and  _216
REMARK   85  A    between atoms: _216  and  _217
REMARK   86  A    between atoms: _217  and  _218
REMARK   87  A    between atoms: _218  and  _219
REMARK   88  A    between atoms: _228  and  _230
REMARK   89  A    between atoms: _230  and  _231
REMARK   90  A    between atoms: _230  and  _233
REMARK   91  A    between atoms: _233  and  _234
REMARK   92  A    between atoms: _239  and  _240
REMARK   93  A    between atoms: _242  and  _244
REMARK   94  A    between atoms: _244  and  _245
REMARK   95  A    between atoms: _244  and  _247
REMARK   96  A    between atoms: _250  and  _252
REMARK   97  A    between atoms: _252  and  _253
REMARK   98  A    between atoms: _256  and  _258
REMARK   99  A    between atoms: _258  and  _259
REMARK  100  A    between atoms: _258  and  _261
REMARK  101  A    between atoms: _261  and  _262
REMARK  102  A    between atoms: _265  and  _267
REMARK  103  A    between atoms: _267  and  _268
REMARK  104  A    between atoms: _271  and  _273
REMARK  105  A    between atoms: _273  and  _274
REMARK  106  A    between atoms: _273  and  _276
REMARK  107  A    between atoms: _276  and  _277
REMARK  108  A    between atoms: _280  and  _282
REMARK  109  A    between atoms: _282  and  _283
REMARK  110  A    between atoms: _282  and  _285
REMARK  111  A    between atoms: _285  and  _286
REMARK  112  A    between atoms: _296  and  _298
REMARK  113  A    between atoms: _298  and  _299
REMARK  114  A    between atoms: _298  and  _301
REMARK  115  A    between atoms: _301  and  _302
REMARK  116  A    between atoms: _304  and  _306
REMARK  117  A    between atoms: _306  and  _307
REMARK  118  A    between atoms: _309  and  _311
REMARK  119  A    between atoms: _311  and  _312
REMARK                            x       y       z     vdW  Elec       q    Type
REMARK                         _______ _______ _______ _____ _____    ______ ____
ROOT
ATOM      1  O   HOH     1      -8.312  81.257  23.124  0.00  0.00    +0.000 OA
ENDROOT
TORSDOF 0
REMARK  Name = ../refined-set-2016/3sk2/3sk2_pocket.pdb
REMARK  119 active torsions:
REMARK  status: ('A' for Active; 'I' for Inactive)
REMARK    1  A    between atoms: _1  and  _3
REMARK    2  A    between atoms: _3  and  _4
REMARK    3  A    between atoms: _3  and  _6
REMARK    4  A    between atoms: _6  and  _7
REMARK    5  A    between atoms: _7  and  _8
REMARK    6  A    between atoms: _11  and  _13
REMARK    7  A    between atoms: _13  and  _14
REMARK    8  A    between atoms: _13  and  _16
REMARK    9  A    between atoms: _16  and  _17
REMARK   10  A    between atoms: _17  and  _18
REMARK   11  A    between atoms: _20  and  _22
REMARK   12  A    between atoms: _22  and  _23
REMARK   13  A    between atoms: _22  and  _25
REMARK   14  A    between atoms: _25  and  _26
REMARK   15  A    between atoms: _31  and  _32
REMARK   16  A    between atoms: _34  and  _36
REMARK   17  A    between atoms: _36  and  _37
REMARK   18  A    between atoms: _36  and  _39
REMARK   19  A    between atoms: _39  and  _40
REMARK   20  A    between atoms: _43  and  _45
REMARK   21  A    between atoms: _45  and  _46
REMARK   22  A    between atoms: _45  and  _48
REMARK   23  A    between atoms: _51  and  _53
REMARK   24  A    between atoms: _53  and  _54
REMARK   25  A    between atoms: _53  and  _56
REMARK   26  A    between atoms: _56  and  _57
REMARK   27  A    between atoms: _63  and  _65
REMARK   28  A    between atoms: _65  and  _66
REMARK   29  A    between atoms: _68  and  _70
REMARK   30  A    between atoms: _70  and  _71
REMARK   31  A    between atoms: _70  and  _73
REMARK   32  A    between atoms: _73  and  _74
REMARK   33  A    between atoms: _77  and  _79
REMARK   34  A    between atoms: _79  and  _80
REMARK   35  A    between atoms: _79  and  _82
REMARK   36  A    between atoms: _82  and  _83
REMARK   37  A    between atoms: _83  and  _84
REMARK   38  A    between atoms: _84  and  _85
REMARK   39  A    between atoms: _94  and  _96
REMARK   40  A    between atoms: _96  and  _97
REMARK   41  A    between atoms: _96  and  _99
REMARK   42  A    between atoms: _102  and  _104
REMARK   43  A    between atoms: _104  and  _105
REMARK   44  A    between atoms: _104  and  _107
REMARK   45  A    between atoms: _110  and  _111
REMARK   46  A    between atoms: _116  and  _118
REMARK   47  A    between atoms: _118  and  _119
REMARK   48  A    between atoms: _118  and  _121
REMARK   49  A    between atoms: _121  and  _122
REMARK   50  A    between atoms: _125  and  _127
REMARK   51  A    between atoms: _127  and  _128
REMARK   52  A    between atoms: _127  and  _130
REMARK   53  A    between atoms: _130  and  _131
REMARK   54  A    between atoms: _135  and  _137
REMARK   55  A    between atoms: _137  and  _138
REMARK   56  A    between atoms: _137  and  _140
REMARK   57  A    between atoms: _140  and  _141
REMARK   58  A    between atoms: _144  and  _146
REMARK   59  A    between atoms: _146  and  _147
REMARK   60  A    between atoms: _146  and  _149
REMARK   61  A    between atoms: _149  and  _150
REMARK   62  A    between atoms: _153  and  _155
REMARK   63  A    between atoms: _155  and  _156
REMARK   64  A    between atoms: _155  and  _158
REMARK   65  A    between atoms: _161  and  _163
REMARK   66  A    between atoms: _163  and  _164
REMARK   67  A    between atoms: _163  and  _166
REMARK   68  A    between atoms: _166  and  _167
REMARK   69  A    between atoms: _172  and  _173
REMARK   70  A    between atoms: _175  and  _177
REMARK   71  A    between atoms: _177  and  _178
REMARK   72  A    between atoms: _177  and  _180
REMARK   73  A    between atoms: _180  and  _181
REMARK   74  A    between atoms: _187  and  _189
REMARK   75  A    between atoms: _189  and  _190
REMARK   76  A    between atoms: _189  and  _192
REMARK   77  A    between atoms: _195  and  _197
REMARK   78  A    between atoms: _197  and  _198
REMARK   79  A    between atoms: _197  and  _200
REMARK   80  A    between atoms: _200  and  _201
REMARK   81  A    between atoms: _205  and  _206
REMARK   82  A    between atoms: _211  and  _213
REMARK   83  A    between atoms: _213  and  _214
REMARK   84  A    between atoms: _213  and  _216
REMARK   85  A    between atoms: _216  and  _217
REMARK   86  A    between atoms: _217  and  _218
REMARK   87  A    between atoms: _218  and  _219
REMARK   88  A    between atoms: _228  and  _230
REMARK   89  A    between atoms: _230  and  _231
REMARK   90  A    between atoms: _230  and  _233
REMARK   91  A    between atoms: _233  and  _234
REMARK   92  A    between atoms: _239  and  _240
REMARK   93  A    between atoms: _242  and  _244
REMARK   94  A    between atoms: _244  and  _245
REMARK   95  A    between atoms: _244  and  _247
REMARK   96  A    between atoms: _250  and  _252
REMARK   97  A    between atoms: _252  and  _253
REMARK   98  A    between atoms: _256  and  _258
REMARK   99  A    between atoms: _258  and  _259
REMARK  100  A    between atoms: _258  and  _261
REMARK  101  A    between atoms: _261  and  _262
REMARK  102  A    between atoms: _265  and  _267
REMARK  103  A    between atoms: _267  and  _268
REMARK  104  A    between atoms: _271  and  _273
REMARK  105  A    between atoms: _273  and  _274
REMARK  106  A    between atoms: _273  and  _276
REMARK  107  A    between atoms: _276  and  _277
REMARK  108  A    between atoms: _280  and  _282
REMARK  109  A    between atoms: _282  and  _283
REMARK  110  A    between atoms: _282  and  _285
REMARK  111  A    between atoms: _285  and  _286
REMARK  112  A    between atoms: _296  and  _298
REMARK  113  A    between atoms: _298  and  _299
REMARK  114  A    between atoms: _298  and  _301
REMARK  115  A    between atoms: _301  and  _302
REMARK  116  A    between atoms: _304  and  _306
REMARK  117  A    between atoms: _306  and  _307
REMARK  118  A    between atoms: _309  and  _311
REMARK  119  A    between atoms: _311  and  _312
REMARK                            x       y       z     vdW  Elec       q    Type
REMARK                         _______ _______ _______ _____ _____    ______ ____
ROOT
ATOM      1  O   HOH     1      -7.739  80.897  25.807  0.00  0.00    +0.000 OA
ENDROOT
TORSDOF 0
REMARK  Name = ../refined-set-2016/3sk2/3sk2_pocket.pdb
REMARK  119 active torsions:
REMARK  status: ('A' for Active; 'I' for Inactive)
REMARK    1  A    between atoms: _1  and  _3
REMARK    2  A    between atoms: _3  and  _4
REMARK    3  A    between atoms: _3  and  _6
REMARK    4  A    between atoms: _6  and  _7
REMARK    5  A    between atoms: _7  and  _8
REMARK    6  A    between atoms: _11  and  _13
REMARK    7  A    between atoms: _13  and  _14
REMARK    8  A    between atoms: _13  and  _16
REMARK    9  A    between atoms: _16  and  _17
REMARK   10  A    between atoms: _17  and  _18
REMARK   11  A    between atoms: _20  and  _22
REMARK   12  A    between atoms: _22  and  _23
REMARK   13  A    between atoms: _22  and  _25
REMARK   14  A    between atoms: _25  and  _26
REMARK   15  A    between atoms: _31  and  _32
REMARK   16  A    between atoms: _34  and  _36
REMARK   17  A    between atoms: _36  and  _37
REMARK   18  A    between atoms: _36  and  _39
REMARK   19  A    between atoms: _39  and  _40
REMARK   20  A    between atoms: _43  and  _45
REMARK   21  A    between atoms: _45  and  _46
REMARK   22  A    between atoms: _45  and  _48
REMARK   23  A    between atoms: _51  and  _53
REMARK   24  A    between atoms: _53  and  _54
REMARK   25  A    between atoms: _53  and  _56
REMARK   26  A    between atoms: _56  and  _57
REMARK   27  A    between atoms: _63  and  _65
REMARK   28  A    between atoms: _65  and  _66
REMARK   29  A    between atoms: _68  and  _70
REMARK   30  A    between atoms: _70  and  _71
REMARK   31  A    between atoms: _70  and  _73
REMARK   32  A    between atoms: _73  and  _74
REMARK   33  A    between atoms: _77  and  _79
REMARK   34  A    between atoms: _79  and  _80
REMARK   35  A    between atoms: _79  and  _82
REMARK   36  A    between atoms: _82  and  _83
REMARK   37  A    between atoms: _83  and  _84
REMARK   38  A    between atoms: _84  and  _85
REMARK   39  A    between atoms: _94  and  _96
REMARK   40  A    between atoms: _96  and  _97
REMARK   41  A    between atoms: _96  and  _99
REMARK   42  A    between atoms: _102  and  _104
REMARK   43  A    between atoms: _104  and  _105
REMARK   44  A    between atoms: _104  and  _107
REMARK   45  A    between atoms: _110  and  _111
REMARK   46  A    between atoms: _116  and  _118
REMARK   47  A    between atoms: _118  and  _119
REMARK   48  A    between atoms: _118  and  _121
REMARK   49  A    between atoms: _121  and  _122
REMARK   50  A    between atoms: _125  and  _127
REMARK   51  A    between atoms: _127  and  _128
REMARK   52  A    between atoms: _127  and  _130
REMARK   53  A    between atoms: _130  and  _131
REMARK   54  A    between atoms: _135  and  _137
REMARK   55  A    between atoms: _137  and  _138
REMARK   56  A    between atoms: _137  and  _140
REMARK   57  A    between atoms: _140  and  _141
REMARK   58  A    between atoms: _144  and  _146
REMARK   59  A    between atoms: _146  and  _147
REMARK   60  A    between atoms: _146  and  _149
REMARK   61  A    between atoms: _149  and  _150
REMARK   62  A    between atoms: _153  and  _155
REMARK   63  A    between atoms: _155  and  _156
REMARK   64  A    between atoms: _155  and  _158
REMARK   65  A    between atoms: _161  and  _163
REMARK   66  A    between atoms: _163  and  _164
REMARK   67  A    between atoms: _163  and  _166
REMARK   68  A    between atoms: _166  and  _167
REMARK   69  A    between atoms: _172  and  _173
REMARK   70  A    between atoms: _175  and  _177
REMARK   71  A    between atoms: _177  and  _178
REMARK   72  A    between atoms: _177  and  _180
REMARK   73  A    between atoms: _180  and  _181
REMARK   74  A    between atoms: _187  and  _189
REMARK   75  A    between atoms: _189  and  _190
REMARK   76  A    between atoms: _189  and  _192
REMARK   77  A    between atoms: _195  and  _197
REMARK   78  A    between atoms: _197  and  _198
REMARK   79  A    between atoms: _197  and  _200
REMARK   80  A    between atoms: _200  and  _201
REMARK   81  A    between atoms: _205  and  _206
REMARK   82  A    between atoms: _211  and  _213
REMARK   83  A    between atoms: _213  and  _214
REMARK   84  A    between atoms: _213  and  _216
REMARK   85  A    between atoms: _216  and  _217
REMARK   86  A    between atoms: _217  and  _218
REMARK   87  A    between atoms: _218  and  _219
REMARK   88  A    between atoms: _228  and  _230
REMARK   89  A    between atoms: _230  and  _231
REMARK   90  A    between atoms: _230  and  _233
REMARK   91  A    between atoms: _233  and  _234
REMARK   92  A    between atoms: _239  and  _240
REMARK   93  A    between atoms: _242  and  _244
REMARK   94  A    between atoms: _244  and  _245
REMARK   95  A    between atoms: _244  and  _247
REMARK   96  A    between atoms: _250  and  _252
REMARK   97  A    between atoms: _252  and  _253
REMARK   98  A    between atoms: _256  and  _258
REMARK   99  A    between atoms: _258  and  _259
REMARK  100  A    between atoms: _258  and  _261
REMARK  101  A    between atoms: _261  and  _262
REMARK  102  A    between atoms: _265  and  _267
REMARK  103  A    between atoms: _267  and  _268
REMARK  104  A    between atoms: _271  and  _273
REMARK  105  A    between atoms: _273  and  _274
REMARK  106  A    between atoms: _273  and  _276
REMARK  107  A    between atoms: _276  and  _277
REMARK  108  A    between atoms: _280  and  _282
REMARK  109  A    between atoms: _282  and  _283
REMARK  110  A    between atoms: _282  and  _285
REMARK  111  A    between atoms: _285  and  _286
REMARK  112  A    between atoms: _296  and  _298
REMARK  113  A    between atoms: _298  and  _299
REMARK  114  A    between atoms: _298  and  _301
REMARK  115  A    between atoms: _301  and  _302
REMARK  116  A    between atoms: _304  and  _306
REMARK  117  A    between atoms: _306  and  _307
REMARK  118  A    between atoms: _309  and  _311
REMARK  119  A    between atoms: _311  and  _312
REMARK                            x       y       z     vdW  Elec       q    Type
REMARK                         _______ _______ _______ _____ _____    ______ ____
ROOT
ATOM      1  O   HOH     1       7.552  90.830  15.980  0.00  0.00    +0.000 OA
ENDROOT
TORSDOF 0
REMARK  Name = ../refined-set-2016/3sk2/3sk2_pocket.pdb
REMARK  119 active torsions:
REMARK  status: ('A' for Active; 'I' for Inactive)
REMARK    1  A    between atoms: _1  and  _3
REMARK    2  A    between atoms: _3  and  _4
REMARK    3  A    between atoms: _3  and  _6
REMARK    4  A    between atoms: _6  and  _7
REMARK    5  A    between atoms: _7  and  _8
REMARK    6  A    between atoms: _11  and  _13
REMARK    7  A    between atoms: _13  and  _14
REMARK    8  A    between atoms: _13  and  _16
REMARK    9  A    between atoms: _16  and  _17
REMARK   10  A    between atoms: _17  and  _18
REMARK   11  A    between atoms: _20  and  _22
REMARK   12  A    between atoms: _22  and  _23
REMARK   13  A    between atoms: _22  and  _25
REMARK   14  A    between atoms: _25  and  _26
REMARK   15  A    between atoms: _31  and  _32
REMARK   16  A    between atoms: _34  and  _36
REMARK   17  A    between atoms: _36  and  _37
REMARK   18  A    between atoms: _36  and  _39
REMARK   19  A    between atoms: _39  and  _40
REMARK   20  A    between atoms: _43  and  _45
REMARK   21  A    between atoms: _45  and  _46
REMARK   22  A    between atoms: _45  and  _48
REMARK   23  A    between atoms: _51  and  _53
REMARK   24  A    between atoms: _53  and  _54
REMARK   25  A    between atoms: _53  and  _56
REMARK   26  A    between atoms: _56  and  _57
REMARK   27  A    between atoms: _63  and  _65
REMARK   28  A    between atoms: _65  and  _66
REMARK   29  A    between atoms: _68  and  _70
REMARK   30  A    between atoms: _70  and  _71
REMARK   31  A    between atoms: _70  and  _73
REMARK   32  A    between atoms: _73  and  _74
REMARK   33  A    between atoms: _77  and  _79
REMARK   34  A    between atoms: _79  and  _80
REMARK   35  A    between atoms: _79  and  _82
REMARK   36  A    between atoms: _82  and  _83
REMARK   37  A    between atoms: _83  and  _84
REMARK   38  A    between atoms: _84  and  _85
REMARK   39  A    between atoms: _94  and  _96
REMARK   40  A    between atoms: _96  and  _97
REMARK   41  A    between atoms: _96  and  _99
REMARK   42  A    between atoms: _102  and  _104
REMARK   43  A    between atoms: _104  and  _105
REMARK   44  A    between atoms: _104  and  _107
REMARK   45  A    between atoms: _110  and  _111
REMARK   46  A    between atoms: _116  and  _118
REMARK   47  A    between atoms: _118  and  _119
REMARK   48  A    between atoms: _118  and  _121
REMARK   49  A    between atoms: _121  and  _122
REMARK   50  A    between atoms: _125  and  _127
REMARK   51  A    between atoms: _127  and  _128
REMARK   52  A    between atoms: _127  and  _130
REMARK   53  A    between atoms: _130  and  _131
REMARK   54  A    between atoms: _135  and  _137
REMARK   55  A    between atoms: _137  and  _138
REMARK   56  A    between atoms: _137  and  _140
REMARK   57  A    between atoms: _140  and  _141
REMARK   58  A    between atoms: _144  and  _146
REMARK   59  A    between atoms: _146  and  _147
REMARK   60  A    between atoms: _146  and  _149
REMARK   61  A    between atoms: _149  and  _150
REMARK   62  A    between atoms: _153  and  _155
REMARK   63  A    between atoms: _155  and  _156
REMARK   64  A    between atoms: _155  and  _158
REMARK   65  A    between atoms: _161  and  _163
REMARK   66  A    between atoms: _163  and  _164
REMARK   67  A    between atoms: _163  and  _166
REMARK   68  A    between atoms: _166  and  _167
REMARK   69  A    between atoms: _172  and  _173
REMARK   70  A    between atoms: _175  and  _177
REMARK   71  A    between atoms: _177  and  _178
REMARK   72  A    between atoms: _177  and  _180
REMARK   73  A    between atoms: _180  and  _181
REMARK   74  A    between atoms: _187  and  _189
REMARK   75  A    between atoms: _189  and  _190
REMARK   76  A    between atoms: _189  and  _192
REMARK   77  A    between atoms: _195  and  _197
REMARK   78  A    between atoms: _197  and  _198
REMARK   79  A    between atoms: _197  and  _200
REMARK   80  A    between atoms: _200  and  _201
REMARK   81  A    between atoms: _205  and  _206
REMARK   82  A    between atoms: _211  and  _213
REMARK   83  A    between atoms: _213  and  _214
REMARK   84  A    between atoms: _213  and  _216
REMARK   85  A    between atoms: _216  and  _217
REMARK   86  A    between atoms: _217  and  _218
REMARK   87  A    between atoms: _218  and  _219
REMARK   88  A    between atoms: _228  and  _230
REMARK   89  A    between atoms: _230  and  _231
REMARK   90  A    between atoms: _230  and  _233
REMARK   91  A    between atoms: _233  and  _234
REMARK   92  A    between atoms: _239  and  _240
REMARK   93  A    between atoms: _242  and  _244
REMARK   94  A    between atoms: _244  and  _245
REMARK   95  A    between atoms: _244  and  _247
REMARK   96  A    between atoms: _250  and  _252
REMARK   97  A    between atoms: _252  and  _253
REMARK   98  A    between atoms: _256  and  _258
REMARK   99  A    between atoms: _258  and  _259
REMARK  100  A    between atoms: _258  and  _261
REMARK  101  A    between atoms: _261  and  _262
REMARK  102  A    between atoms: _265  and  _267
REMARK  103  A    between atoms: _267  and  _268
REMARK  104  A    between atoms: _271  and  _273
REMARK  105  A    between atoms: _273  and  _274
REMARK  106  A    between atoms: _273  and  _276
REMARK  107  A    between atoms: _276  and  _277
REMARK  108  A    between atoms: _280  and  _282
REMARK  109  A    between atoms: _282  and  _283
REMARK  110  A    between atoms: _282  and  _285
REMARK  111  A    between atoms: _285  and  _286
REMARK  112  A    between atoms: _296  and  _298
REMARK  113  A    between atoms: _298  and  _299
REMARK  114  A    between atoms: _298  and  _301
REMARK  115  A    between atoms: _301  and  _302
REMARK  116  A    between atoms: _304  and  _306
REMARK  117  A    between atoms: _306  and  _307
REMARK  118  A    between atoms: _309  and  _311
REMARK  119  A    between atoms: _311  and  _312
REMARK                            x       y       z     vdW  Elec       q    Type
REMARK                         _______ _______ _______ _____ _____    ______ ____
ROOT
ATOM      1  O   HOH     1      11.687  83.917  26.785  0.00  0.00    +0.000 OA
ENDROOT
TORSDOF 0
REMARK  Name = ../refined-set-2016/3sk2/3sk2_pocket.pdb
REMARK  119 active torsions:
REMARK  status: ('A' for Active; 'I' for Inactive)
REMARK    1  A    between atoms: _1  and  _3
REMARK    2  A    between atoms: _3  and  _4
REMARK    3  A    between atoms: _3  and  _6
REMARK    4  A    between atoms: _6  and  _7
REMARK    5  A    between atoms: _7  and  _8
REMARK    6  A    between atoms: _11  and  _13
REMARK    7  A    between atoms: _13  and  _14
REMARK    8  A    between atoms: _13  and  _16
REMARK    9  A    between atoms: _16  and  _17
REMARK   10  A    between atoms: _17  and  _18
REMARK   11  A    between atoms: _20  and  _22
REMARK   12  A    between atoms: _22  and  _23
REMARK   13  A    between atoms: _22  and  _25
REMARK   14  A    between atoms: _25  and  _26
REMARK   15  A    between atoms: _31  and  _32
REMARK   16  A    between atoms: _34  and  _36
REMARK   17  A    between atoms: _36  and  _37
REMARK   18  A    between atoms: _36  and  _39
REMARK   19  A    between atoms: _39  and  _40
REMARK   20  A    between atoms: _43  and  _45
REMARK   21  A    between atoms: _45  and  _46
REMARK   22  A    between atoms: _45  and  _48
REMARK   23  A    between atoms: _51  and  _53
REMARK   24  A    between atoms: _53  and  _54
REMARK   25  A    between atoms: _53  and  _56
REMARK   26  A    between atoms: _56  and  _57
REMARK   27  A    between atoms: _63  and  _65
REMARK   28  A    between atoms: _65  and  _66
REMARK   29  A    between atoms: _68  and  _70
REMARK   30  A    between atoms: _70  and  _71
REMARK   31  A    between atoms: _70  and  _73
REMARK   32  A    between atoms: _73  and  _74
REMARK   33  A    between atoms: _77  and  _79
REMARK   34  A    between atoms: _79  and  _80
REMARK   35  A    between atoms: _79  and  _82
REMARK   36  A    between atoms: _82  and  _83
REMARK   37  A    between atoms: _83  and  _84
REMARK   38  A    between atoms: _84  and  _85
REMARK   39  A    between atoms: _94  and  _96
REMARK   40  A    between atoms: _96  and  _97
REMARK   41  A    between atoms: _96  and  _99
REMARK   42  A    between atoms: _102  and  _104
REMARK   43  A    between atoms: _104  and  _105
REMARK   44  A    between atoms: _104  and  _107
REMARK   45  A    between atoms: _110  and  _111
REMARK   46  A    between atoms: _116  and  _118
REMARK   47  A    between atoms: _118  and  _119
REMARK   48  A    between atoms: _118  and  _121
REMARK   49  A    between atoms: _121  and  _122
REMARK   50  A    between atoms: _125  and  _127
REMARK   51  A    between atoms: _127  and  _128
REMARK   52  A    between atoms: _127  and  _130
REMARK   53  A    between atoms: _130  and  _131
REMARK   54  A    between atoms: _135  and  _137
REMARK   55  A    between atoms: _137  and  _138
REMARK   56  A    between atoms: _137  and  _140
REMARK   57  A    between atoms: _140  and  _141
REMARK   58  A    between atoms: _144  and  _146
REMARK   59  A    between atoms: _146  and  _147
REMARK   60  A    between atoms: _146  and  _149
REMARK   61  A    between atoms: _149  and  _150
REMARK   62  A    between atoms: _153  and  _155
REMARK   63  A    between atoms: _155  and  _156
REMARK   64  A    between atoms: _155  and  _158
REMARK   65  A    between atoms: _161  and  _163
REMARK   66  A    between atoms: _163  and  _164
REMARK   67  A    between atoms: _163  and  _166
REMARK   68  A    between atoms: _166  and  _167
REMARK   69  A    between atoms: _172  and  _173
REMARK   70  A    between atoms: _175  and  _177
REMARK   71  A    between atoms: _177  and  _178
REMARK   72  A    between atoms: _177  and  _180
REMARK   73  A    between atoms: _180  and  _181
REMARK   74  A    between atoms: _187  and  _189
REMARK   75  A    between atoms: _189  and  _190
REMARK   76  A    between atoms: _189  and  _192
REMARK   77  A    between atoms: _195  and  _197
REMARK   78  A    between atoms: _197  and  _198
REMARK   79  A    between atoms: _197  and  _200
REMARK   80  A    between atoms: _200  and  _201
REMARK   81  A    between atoms: _205  and  _206
REMARK   82  A    between atoms: _211  and  _213
REMARK   83  A    between atoms: _213  and  _214
REMARK   84  A    between atoms: _213  and  _216
REMARK   85  A    between atoms: _216  and  _217
REMARK   86  A    between atoms: _217  and  _218
REMARK   87  A    between atoms: _218  and  _219
REMARK   88  A    between atoms: _228  and  _230
REMARK   89  A    between atoms: _230  and  _231
REMARK   90  A    between atoms: _230  and  _233
REMARK   91  A    between atoms: _233  and  _234
REMARK   92  A    between atoms: _239  and  _240
REMARK   93  A    between atoms: _242  and  _244
REMARK   94  A    between atoms: _244  and  _245
REMARK   95  A    between atoms: _244  and  _247
REMARK   96  A    between atoms: _250  and  _252
REMARK   97  A    between atoms: _252  and  _253
REMARK   98  A    between atoms: _256  and  _258
REMARK   99  A    between atoms: _258  and  _259
REMARK  100  A    between atoms: _258  and  _261
REMARK  101  A    between atoms: _261  and  _262
REMARK  102  A    between atoms: _265  and  _267
REMARK  103  A    between atoms: _267  and  _268
REMARK  104  A    between atoms: _271  and  _273
REMARK  105  A    between atoms: _273  and  _274
REMARK  106  A    between atoms: _273  and  _276
REMARK  107  A    between atoms: _276  and  _277
REMARK  108  A    between atoms: _280  and  _282
REMARK  109  A    between atoms: _282  and  _283
REMARK  110  A    between atoms: _282  and  _285
REMARK  111  A    between atoms: _285  and  _286
REMARK  112  A    between atoms: _296  and  _298
REMARK  113  A    between atoms: _298  and  _299
REMARK  114  A    between atoms: _298  and  _301
REMARK  115  A    between atoms: _301  and  _302
REMARK  116  A    between atoms: _304  and  _306
REMARK  117  A    between atoms: _306  and  _307
REMARK  118  A    between atoms: _309  and  _311
REMARK  119  A    between atoms: _311  and  _312
REMARK                            x       y       z     vdW  Elec       q    Type
REMARK                         _______ _______ _______ _____ _____    ______ ____
ROOT
ATOM      1  O   HOH     1      10.465  86.948  25.724  0.00  0.00    +0.000 OA
ENDROOT
TORSDOF 0
REMARK  Name = ../refined-set-2016/3sk2/3sk2_pocket.pdb
REMARK  119 active torsions:
REMARK  status: ('A' for Active; 'I' for Inactive)
REMARK    1  A    between atoms: _1  and  _3
REMARK    2  A    between atoms: _3  and  _4
REMARK    3  A    between atoms: _3  and  _6
REMARK    4  A    between atoms: _6  and  _7
REMARK    5  A    between atoms: _7  and  _8
REMARK    6  A    between atoms: _11  and  _13
REMARK    7  A    between atoms: _13  and  _14
REMARK    8  A    between atoms: _13  and  _16
REMARK    9  A    between atoms: _16  and  _17
REMARK   10  A    between atoms: _17  and  _18
REMARK   11  A    between atoms: _20  and  _22
REMARK   12  A    between atoms: _22  and  _23
REMARK   13  A    between atoms: _22  and  _25
REMARK   14  A    between atoms: _25  and  _26
REMARK   15  A    between atoms: _31  and  _32
REMARK   16  A    between atoms: _34  and  _36
REMARK   17  A    between atoms: _36  and  _37
REMARK   18  A    between atoms: _36  and  _39
REMARK   19  A    between atoms: _39  and  _40
REMARK   20  A    between atoms: _43  and  _45
REMARK   21  A    between atoms: _45  and  _46
REMARK   22  A    between atoms: _45  and  _48
REMARK   23  A    between atoms: _51  and  _53
REMARK   24  A    between atoms: _53  and  _54
REMARK   25  A    between atoms: _53  and  _56
REMARK   26  A    between atoms: _56  and  _57
REMARK   27  A    between atoms: _63  and  _65
REMARK   28  A    between atoms: _65  and  _66
REMARK   29  A    between atoms: _68  and  _70
REMARK   30  A    between atoms: _70  and  _71
REMARK   31  A    between atoms: _70  and  _73
REMARK   32  A    between atoms: _73  and  _74
REMARK   33  A    between atoms: _77  and  _79
REMARK   34  A    between atoms: _79  and  _80
REMARK   35  A    between atoms: _79  and  _82
REMARK   36  A    between atoms: _82  and  _83
REMARK   37  A    between atoms: _83  and  _84
REMARK   38  A    between atoms: _84  and  _85
REMARK   39  A    between atoms: _94  and  _96
REMARK   40  A    between atoms: _96  and  _97
REMARK   41  A    between atoms: _96  and  _99
REMARK   42  A    between atoms: _102  and  _104
REMARK   43  A    between atoms: _104  and  _105
REMARK   44  A    between atoms: _104  and  _107
REMARK   45  A    between atoms: _110  and  _111
REMARK   46  A    between atoms: _116  and  _118
REMARK   47  A    between atoms: _118  and  _119
REMARK   48  A    between atoms: _118  and  _121
REMARK   49  A    between atoms: _121  and  _122
REMARK   50  A    between atoms: _125  and  _127
REMARK   51  A    between atoms: _127  and  _128
REMARK   52  A    between atoms: _127  and  _130
REMARK   53  A    between atoms: _130  and  _131
REMARK   54  A    between atoms: _135  and  _137
REMARK   55  A    between atoms: _137  and  _138
REMARK   56  A    between atoms: _137  and  _140
REMARK   57  A    between atoms: _140  and  _141
REMARK   58  A    between atoms: _144  and  _146
REMARK   59  A    between atoms: _146  and  _147
REMARK   60  A    between atoms: _146  and  _149
REMARK   61  A    between atoms: _149  and  _150
REMARK   62  A    between atoms: _153  and  _155
REMARK   63  A    between atoms: _155  and  _156
REMARK   64  A    between atoms: _155  and  _158
REMARK   65  A    between atoms: _161  and  _163
REMARK   66  A    between atoms: _163  and  _164
REMARK   67  A    between atoms: _163  and  _166
REMARK   68  A    between atoms: _166  and  _167
REMARK   69  A    between atoms: _172  and  _173
REMARK   70  A    between atoms: _175  and  _177
REMARK   71  A    between atoms: _177  and  _178
REMARK   72  A    between atoms: _177  and  _180
REMARK   73  A    between atoms: _180  and  _181
REMARK   74  A    between atoms: _187  and  _189
REMARK   75  A    between atoms: _189  and  _190
REMARK   76  A    between atoms: _189  and  _192
REMARK   77  A    between atoms: _195  and  _197
REMARK   78  A    between atoms: _197  and  _198
REMARK   79  A    between atoms: _197  and  _200
REMARK   80  A    between atoms: _200  and  _201
REMARK   81  A    between atoms: _205  and  _206
REMARK   82  A    between atoms: _211  and  _213
REMARK   83  A    between atoms: _213  and  _214
REMARK   84  A    between atoms: _213  and  _216
REMARK   85  A    between atoms: _216  and  _217
REMARK   86  A    between atoms: _217  and  _218
REMARK   87  A    between atoms: _218  and  _219
REMARK   88  A    between atoms: _228  and  _230
REMARK   89  A    between atoms: _230  and  _231
REMARK   90  A    between atoms: _230  and  _233
REMARK   91  A    between atoms: _233  and  _234
REMARK   92  A    between atoms: _239  and  _240
REMARK   93  A    between atoms: _242  and  _244
REMARK   94  A    between atoms: _244  and  _245
REMARK   95  A    between atoms: _244  and  _247
REMARK   96  A    between atoms: _250  and  _252
REMARK   97  A    between atoms: _252  and  _253
REMARK   98  A    between atoms: _256  and  _258
REMARK   99  A    between atoms: _258  and  _259
REMARK  100  A    between atoms: _258  and  _261
REMARK  101  A    between atoms: _261  and  _262
REMARK  102  A    between atoms: _265  and  _267
REMARK  103  A    between atoms: _267  and  _268
REMARK  104  A    between atoms: _271  and  _273
REMARK  105  A    between atoms: _273  and  _274
REMARK  106  A    between atoms: _273  and  _276
REMARK  107  A    between atoms: _276  and  _277
REMARK  108  A    between atoms: _280  and  _282
REMARK  109  A    between atoms: _282  and  _283
REMARK  110  A    between atoms: _282  and  _285
REMARK  111  A    between atoms: _285  and  _286
REMARK  112  A    between atoms: _296  and  _298
REMARK  113  A    between atoms: _298  and  _299
REMARK  114  A    between atoms: _298  and  _301
REMARK  115  A    between atoms: _301  and  _302
REMARK  116  A    between atoms: _304  and  _306
REMARK  117  A    between atoms: _306  and  _307
REMARK  118  A    between atoms: _309  and  _311
REMARK  119  A    between atoms: _311  and  _312
REMARK                            x       y       z     vdW  Elec       q    Type
REMARK                         _______ _______ _______ _____ _____    ______ ____
ROOT
ATOM      1  O   HOH     1       9.569  88.363  19.000  0.00  0.00    +0.000 OA
ENDROOT
TORSDOF 0
REMARK  Name = ../refined-set-2016/3sk2/3sk2_pocket.pdb
REMARK  119 active torsions:
REMARK  status: ('A' for Active; 'I' for Inactive)
REMARK    1  A    between atoms: _1  and  _3
REMARK    2  A    between atoms: _3  and  _4
REMARK    3  A    between atoms: _3  and  _6
REMARK    4  A    between atoms: _6  and  _7
REMARK    5  A    between atoms: _7  and  _8
REMARK    6  A    between atoms: _11  and  _13
REMARK    7  A    between atoms: _13  and  _14
REMARK    8  A    between atoms: _13  and  _16
REMARK    9  A    between atoms: _16  and  _17
REMARK   10  A    between atoms: _17  and  _18
REMARK   11  A    between atoms: _20  and  _22
REMARK   12  A    between atoms: _22  and  _23
REMARK   13  A    between atoms: _22  and  _25
REMARK   14  A    between atoms: _25  and  _26
REMARK   15  A    between atoms: _31  and  _32
REMARK   16  A    between atoms: _34  and  _36
REMARK   17  A    between atoms: _36  and  _37
REMARK   18  A    between atoms: _36  and  _39
REMARK   19  A    between atoms: _39  and  _40
REMARK   20  A    between atoms: _43  and  _45
REMARK   21  A    between atoms: _45  and  _46
REMARK   22  A    between atoms: _45  and  _48
REMARK   23  A    between atoms: _51  and  _53
REMARK   24  A    between atoms: _53  and  _54
REMARK   25  A    between atoms: _53  and  _56
REMARK   26  A    between atoms: _56  and  _57
REMARK   27  A    between atoms: _63  and  _65
REMARK   28  A    between atoms: _65  and  _66
REMARK   29  A    between atoms: _68  and  _70
REMARK   30  A    between atoms: _70  and  _71
REMARK   31  A    between atoms: _70  and  _73
REMARK   32  A    between atoms: _73  and  _74
REMARK   33  A    between atoms: _77  and  _79
REMARK   34  A    between atoms: _79  and  _80
REMARK   35  A    between atoms: _79  and  _82
REMARK   36  A    between atoms: _82  and  _83
REMARK   37  A    between atoms: _83  and  _84
REMARK   38  A    between atoms: _84  and  _85
REMARK   39  A    between atoms: _94  and  _96
REMARK   40  A    between atoms: _96  and  _97
REMARK   41  A    between atoms: _96  and  _99
REMARK   42  A    between atoms: _102  and  _104
REMARK   43  A    between atoms: _104  and  _105
REMARK   44  A    between atoms: _104  and  _107
REMARK   45  A    between atoms: _110  and  _111
REMARK   46  A    between atoms: _116  and  _118
REMARK   47  A    between atoms: _118  and  _119
REMARK   48  A    between atoms: _118  and  _121
REMARK   49  A    between atoms: _121  and  _122
REMARK   50  A    between atoms: _125  and  _127
REMARK   51  A    between atoms: _127  and  _128
REMARK   52  A    between atoms: _127  and  _130
REMARK   53  A    between atoms: _130  and  _131
REMARK   54  A    between atoms: _135  and  _137
REMARK   55  A    between atoms: _137  and  _138
REMARK   56  A    between atoms: _137  and  _140
REMARK   57  A    between atoms: _140  and  _141
REMARK   58  A    between atoms: _144  and  _146
REMARK   59  A    between atoms: _146  and  _147
REMARK   60  A    between atoms: _146  and  _149
REMARK   61  A    between atoms: _149  and  _150
REMARK   62  A    between atoms: _153  and  _155
REMARK   63  A    between atoms: _155  and  _156
REMARK   64  A    between atoms: _155  and  _158
REMARK   65  A    between atoms: _161  and  _163
REMARK   66  A    between atoms: _163  and  _164
REMARK   67  A    between atoms: _163  and  _166
REMARK   68  A    between atoms: _166  and  _167
REMARK   69  A    between atoms: _172  and  _173
REMARK   70  A    between atoms: _175  and  _177
REMARK   71  A    between atoms: _177  and  _178
REMARK   72  A    between atoms: _177  and  _180
REMARK   73  A    between atoms: _180  and  _181
REMARK   74  A    between atoms: _187  and  _189
REMARK   75  A    between atoms: _189  and  _190
REMARK   76  A    between atoms: _189  and  _192
REMARK   77  A    between atoms: _195  and  _197
REMARK   78  A    between atoms: _197  and  _198
REMARK   79  A    between atoms: _197  and  _200
REMARK   80  A    between atoms: _200  and  _201
REMARK   81  A    between atoms: _205  and  _206
REMARK   82  A    between atoms: _211  and  _213
REMARK   83  A    between atoms: _213  and  _214
REMARK   84  A    between atoms: _213  and  _216
REMARK   85  A    between atoms: _216  and  _217
REMARK   86  A    between atoms: _217  and  _218
REMARK   87  A    between atoms: _218  and  _219
REMARK   88  A    between atoms: _228  and  _230
REMARK   89  A    between atoms: _230  and  _231
REMARK   90  A    between atoms: _230  and  _233
REMARK   91  A    between atoms: _233  and  _234
REMARK   92  A    between atoms: _239  and  _240
REMARK   93  A    between atoms: _242  and  _244
REMARK   94  A    between atoms: _244  and  _245
REMARK   95  A    between atoms: _244  and  _247
REMARK   96  A    between atoms: _250  and  _252
REMARK   97  A    between atoms: _252  and  _253
REMARK   98  A    between atoms: _256  and  _258
REMARK   99  A    between atoms: _258  and  _259
REMARK  100  A    between atoms: _258  and  _261
REMARK  101  A    between atoms: _261  and  _262
REMARK  102  A    between atoms: _265  and  _267
REMARK  103  A    between atoms: _267  and  _268
REMARK  104  A    between atoms: _271  and  _273
REMARK  105  A    between atoms: _273  and  _274
REMARK  106  A    between atoms: _273  and  _276
REMARK  107  A    between atoms: _276  and  _277
REMARK  108  A    between atoms: _280  and  _282
REMARK  109  A    between atoms: _282  and  _283
REMARK  110  A    between atoms: _282  and  _285
REMARK  111  A    between atoms: _285  and  _286
REMARK  112  A    between atoms: _296  and  _298
REMARK  113  A    between atoms: _298  and  _299
REMARK  114  A    between atoms: _298  and  _301
REMARK  115  A    between atoms: _301  and  _302
REMARK  116  A    between atoms: _304  and  _306
REMARK  117  A    between atoms: _306  and  _307
REMARK  118  A    between atoms: _309  and  _311
REMARK  119  A    between atoms: _311  and  _312
REMARK                            x       y       z     vdW  Elec       q    Type
REMARK                         _______ _______ _______ _____ _____    ______ ____
ROOT
ATOM      1  O   HOH     1       2.512  94.023  18.378  0.00  0.00    +0.000 OA
ENDROOT
TORSDOF 0
REMARK  Name = ../refined-set-2016/3sk2/3sk2_pocket.pdb
REMARK  119 active torsions:
REMARK  status: ('A' for Active; 'I' for Inactive)
REMARK    1  A    between atoms: _1  and  _3
REMARK    2  A    between atoms: _3  and  _4
REMARK    3  A    between atoms: _3  and  _6
REMARK    4  A    between atoms: _6  and  _7
REMARK    5  A    between atoms: _7  and  _8
REMARK    6  A    between atoms: _11  and  _13
REMARK    7  A    between atoms: _13  and  _14
REMARK    8  A    between atoms: _13  and  _16
REMARK    9  A    between atoms: _16  and  _17
REMARK   10  A    between atoms: _17  and  _18
REMARK   11  A    between atoms: _20  and  _22
REMARK   12  A    between atoms: _22  and  _23
REMARK   13  A    between atoms: _22  and  _25
REMARK   14  A    between atoms: _25  and  _26
REMARK   15  A    between atoms: _31  and  _32
REMARK   16  A    between atoms: _34  and  _36
REMARK   17  A    between atoms: _36  and  _37
REMARK   18  A    between atoms: _36  and  _39
REMARK   19  A    between atoms: _39  and  _40
REMARK   20  A    between atoms: _43  and  _45
REMARK   21  A    between atoms: _45  and  _46
REMARK   22  A    between atoms: _45  and  _48
REMARK   23  A    between atoms: _51  and  _53
REMARK   24  A    between atoms: _53  and  _54
REMARK   25  A    between atoms: _53  and  _56
REMARK   26  A    between atoms: _56  and  _57
REMARK   27  A    between atoms: _63  and  _65
REMARK   28  A    between atoms: _65  and  _66
REMARK   29  A    between atoms: _68  and  _70
REMARK   30  A    between atoms: _70  and  _71
REMARK   31  A    between atoms: _70  and  _73
REMARK   32  A    between atoms: _73  and  _74
REMARK   33  A    between atoms: _77  and  _79
REMARK   34  A    between atoms: _79  and  _80
REMARK   35  A    between atoms: _79  and  _82
REMARK   36  A    between atoms: _82  and  _83
REMARK   37  A    between atoms: _83  and  _84
REMARK   38  A    between atoms: _84  and  _85
REMARK   39  A    between atoms: _94  and  _96
REMARK   40  A    between atoms: _96  and  _97
REMARK   41  A    between atoms: _96  and  _99
REMARK   42  A    between atoms: _102  and  _104
REMARK   43  A    between atoms: _104  and  _105
REMARK   44  A    between atoms: _104  and  _107
REMARK   45  A    between atoms: _110  and  _111
REMARK   46  A    between atoms: _116  and  _118
REMARK   47  A    between atoms: _118  and  _119
REMARK   48  A    between atoms: _118  and  _121
REMARK   49  A    between atoms: _121  and  _122
REMARK   50  A    between atoms: _125  and  _127
REMARK   51  A    between atoms: _127  and  _128
REMARK   52  A    between atoms: _127  and  _130
REMARK   53  A    between atoms: _130  and  _131
REMARK   54  A    between atoms: _135  and  _137
REMARK   55  A    between atoms: _137  and  _138
REMARK   56  A    between atoms: _137  and  _140
REMARK   57  A    between atoms: _140  and  _141
REMARK   58  A    between atoms: _144  and  _146
REMARK   59  A    between atoms: _146  and  _147
REMARK   60  A    between atoms: _146  and  _149
REMARK   61  A    between atoms: _149  and  _150
REMARK   62  A    between atoms: _153  and  _155
REMARK   63  A    between atoms: _155  and  _156
REMARK   64  A    between atoms: _155  and  _158
REMARK   65  A    between atoms: _161  and  _163
REMARK   66  A    between atoms: _163  and  _164
REMARK   67  A    between atoms: _163  and  _166
REMARK   68  A    between atoms: _166  and  _167
REMARK   69  A    between atoms: _172  and  _173
REMARK   70  A    between atoms: _175  and  _177
REMARK   71  A    between atoms: _177  and  _178
REMARK   72  A    between atoms: _177  and  _180
REMARK   73  A    between atoms: _180  and  _181
REMARK   74  A    between atoms: _187  and  _189
REMARK   75  A    between atoms: _189  and  _190
REMARK   76  A    between atoms: _189  and  _192
REMARK   77  A    between atoms: _195  and  _197
REMARK   78  A    between atoms: _197  and  _198
REMARK   79  A    between atoms: _197  and  _200
REMARK   80  A    between atoms: _200  and  _201
REMARK   81  A    between atoms: _205  and  _206
REMARK   82  A    between atoms: _211  and  _213
REMARK   83  A    between atoms: _213  and  _214
REMARK   84  A    between atoms: _213  and  _216
REMARK   85  A    between atoms: _216  and  _217
REMARK   86  A    between atoms: _217  and  _218
REMARK   87  A    between atoms: _218  and  _219
REMARK   88  A    between atoms: _228  and  _230
REMARK   89  A    between atoms: _230  and  _231
REMARK   90  A    between atoms: _230  and  _233
REMARK   91  A    between atoms: _233  and  _234
REMARK   92  A    between atoms: _239  and  _240
REMARK   93  A    between atoms: _242  and  _244
REMARK   94  A    between atoms: _244  and  _245
REMARK   95  A    between atoms: _244  and  _247
REMARK   96  A    between atoms: _250  and  _252
REMARK   97  A    between atoms: _252  and  _253
REMARK   98  A    between atoms: _256  and  _258
REMARK   99  A    between atoms: _258  and  _259
REMARK  100  A    between atoms: _258  and  _261
REMARK  101  A    between atoms: _261  and  _262
REMARK  102  A    between atoms: _265  and  _267
REMARK  103  A    between atoms: _267  and  _268
REMARK  104  A    between atoms: _271  and  _273
REMARK  105  A    between atoms: _273  and  _274
REMARK  106  A    between atoms: _273  and  _276
REMARK  107  A    between atoms: _276  and  _277
REMARK  108  A    between atoms: _280  and  _282
REMARK  109  A    between atoms: _282  and  _283
REMARK  110  A    between atoms: _282  and  _285
REMARK  111  A    between atoms: _285  and  _286
REMARK  112  A    between atoms: _296  and  _298
REMARK  113  A    between atoms: _298  and  _299
REMARK  114  A    between atoms: _298  and  _301
REMARK  115  A    between atoms: _301  and  _302
REMARK  116  A    between atoms: _304  and  _306
REMARK  117  A    between atoms: _306  and  _307
REMARK  118  A    between atoms: _309  and  _311
REMARK  119  A    between atoms: _311  and  _312
REMARK                            x       y       z     vdW  Elec       q    Type
REMARK                         _______ _______ _______ _____ _____    ______ ____
ROOT
ATOM      1  O   HOH     1       1.487  92.267  20.366  0.00  0.00    +0.000 OA
ENDROOT
TORSDOF 0
REMARK  Name = ../refined-set-2016/3sk2/3sk2_pocket.pdb
REMARK  119 active torsions:
REMARK  status: ('A' for Active; 'I' for Inactive)
REMARK    1  A    between atoms: _1  and  _3
REMARK    2  A    between atoms: _3  and  _4
REMARK    3  A    between atoms: _3  and  _6
REMARK    4  A    between atoms: _6  and  _7
REMARK    5  A    between atoms: _7  and  _8
REMARK    6  A    between atoms: _11  and  _13
REMARK    7  A    between atoms: _13  and  _14
REMARK    8  A    between atoms: _13  and  _16
REMARK    9  A    between atoms: _16  and  _17
REMARK   10  A    between atoms: _17  and  _18
REMARK   11  A    between atoms: _20  and  _22
REMARK   12  A    between atoms: _22  and  _23
REMARK   13  A    between atoms: _22  and  _25
REMARK   14  A    between atoms: _25  and  _26
REMARK   15  A    between atoms: _31  and  _32
REMARK   16  A    between atoms: _34  and  _36
REMARK   17  A    between atoms: _36  and  _37
REMARK   18  A    between atoms: _36  and  _39
REMARK   19  A    between atoms: _39  and  _40
REMARK   20  A    between atoms: _43  and  _45
REMARK   21  A    between atoms: _45  and  _46
REMARK   22  A    between atoms: _45  and  _48
REMARK   23  A    between atoms: _51  and  _53
REMARK   24  A    between atoms: _53  and  _54
REMARK   25  A    between atoms: _53  and  _56
REMARK   26  A    between atoms: _56  and  _57
REMARK   27  A    between atoms: _63  and  _65
REMARK   28  A    between atoms: _65  and  _66
REMARK   29  A    between atoms: _68  and  _70
REMARK   30  A    between atoms: _70  and  _71
REMARK   31  A    between atoms: _70  and  _73
REMARK   32  A    between atoms: _73  and  _74
REMARK   33  A    between atoms: _77  and  _79
REMARK   34  A    between atoms: _79  and  _80
REMARK   35  A    between atoms: _79  and  _82
REMARK   36  A    between atoms: _82  and  _83
REMARK   37  A    between atoms: _83  and  _84
REMARK   38  A    between atoms: _84  and  _85
REMARK   39  A    between atoms: _94  and  _96
REMARK   40  A    between atoms: _96  and  _97
REMARK   41  A    between atoms: _96  and  _99
REMARK   42  A    between atoms: _102  and  _104
REMARK   43  A    between atoms: _104  and  _105
REMARK   44  A    between atoms: _104  and  _107
REMARK   45  A    between atoms: _110  and  _111
REMARK   46  A    between atoms: _116  and  _118
REMARK   47  A    between atoms: _118  and  _119
REMARK   48  A    between atoms: _118  and  _121
REMARK   49  A    between atoms: _121  and  _122
REMARK   50  A    between atoms: _125  and  _127
REMARK   51  A    between atoms: _127  and  _128
REMARK   52  A    between atoms: _127  and  _130
REMARK   53  A    between atoms: _130  and  _131
REMARK   54  A    between atoms: _135  and  _137
REMARK   55  A    between atoms: _137  and  _138
REMARK   56  A    between atoms: _137  and  _140
REMARK   57  A    between atoms: _140  and  _141
REMARK   58  A    between atoms: _144  and  _146
REMARK   59  A    between atoms: _146  and  _147
REMARK   60  A    between atoms: _146  and  _149
REMARK   61  A    between atoms: _149  and  _150
REMARK   62  A    between atoms: _153  and  _155
REMARK   63  A    between atoms: _155  and  _156
REMARK   64  A    between atoms: _155  and  _158
REMARK   65  A    between atoms: _161  and  _163
REMARK   66  A    between atoms: _163  and  _164
REMARK   67  A    between atoms: _163  and  _166
REMARK   68  A    between atoms: _166  and  _167
REMARK   69  A    between atoms: _172  and  _173
REMARK   70  A    between atoms: _175  and  _177
REMARK   71  A    between atoms: _177  and  _178
REMARK   72  A    between atoms: _177  and  _180
REMARK   73  A    between atoms: _180  and  _181
REMARK   74  A    between atoms: _187  and  _189
REMARK   75  A    between atoms: _189  and  _190
REMARK   76  A    between atoms: _189  and  _192
REMARK   77  A    between atoms: _195  and  _197
REMARK   78  A    between atoms: _197  and  _198
REMARK   79  A    between atoms: _197  and  _200
REMARK   80  A    between atoms: _200  and  _201
REMARK   81  A    between atoms: _205  and  _206
REMARK   82  A    between atoms: _211  and  _213
REMARK   83  A    between atoms: _213  and  _214
REMARK   84  A    between atoms: _213  and  _216
REMARK   85  A    between atoms: _216  and  _217
REMARK   86  A    between atoms: _217  and  _218
REMARK   87  A    between atoms: _218  and  _219
REMARK   88  A    between atoms: _228  and  _230
REMARK   89  A    between atoms: _230  and  _231
REMARK   90  A    between atoms: _230  and  _233
REMARK   91  A    between atoms: _233  and  _234
REMARK   92  A    between atoms: _239  and  _240
REMARK   93  A    between atoms: _242  and  _244
REMARK   94  A    between atoms: _244  and  _245
REMARK   95  A    between atoms: _244  and  _247
REMARK   96  A    between atoms: _250  and  _252
REMARK   97  A    between atoms: _252  and  _253
REMARK   98  A    between atoms: _256  and  _258
REMARK   99  A    between atoms: _258  and  _259
REMARK  100  A    between atoms: _258  and  _261
REMARK  101  A    between atoms: _261  and  _262
REMARK  102  A    between atoms: _265  and  _267
REMARK  103  A    between atoms: _267  and  _268
REMARK  104  A    between atoms: _271  and  _273
REMARK  105  A    between atoms: _273  and  _274
REMARK  106  A    between atoms: _273  and  _276
REMARK  107  A    between atoms: _276  and  _277
REMARK  108  A    between atoms: _280  and  _282
REMARK  109  A    between atoms: _282  and  _283
REMARK  110  A    between atoms: _282  and  _285
REMARK  111  A    between atoms: _285  and  _286
REMARK  112  A    between atoms: _296  and  _298
REMARK  113  A    between atoms: _298  and  _299
REMARK  114  A    between atoms: _298  and  _301
REMARK  115  A    between atoms: _301  and  _302
REMARK  116  A    between atoms: _304  and  _306
REMARK  117  A    between atoms: _306  and  _307
REMARK  118  A    between atoms: _309  and  _311
REMARK  119  A    between atoms: _311  and  _312
REMARK                            x       y       z     vdW  Elec       q    Type
REMARK                         _______ _______ _______ _____ _____    ______ ____
ROOT
ATOM      1  O   HOH     1       9.766  90.836  18.301  0.00  0.00    +0.000 OA
ENDROOT
TORSDOF 0
REMARK  Name = ../refined-set-2016/3sk2/3sk2_pocket.pdb
REMARK  119 active torsions:
REMARK  status: ('A' for Active; 'I' for Inactive)
REMARK    1  A    between atoms: _1  and  _3
REMARK    2  A    between atoms: _3  and  _4
REMARK    3  A    between atoms: _3  and  _6
REMARK    4  A    between atoms: _6  and  _7
REMARK    5  A    between atoms: _7  and  _8
REMARK    6  A    between atoms: _11  and  _13
REMARK    7  A    between atoms: _13  and  _14
REMARK    8  A    between atoms: _13  and  _16
REMARK    9  A    between atoms: _16  and  _17
REMARK   10  A    between atoms: _17  and  _18
REMARK   11  A    between atoms: _20  and  _22
REMARK   12  A    between atoms: _22  and  _23
REMARK   13  A    between atoms: _22  and  _25
REMARK   14  A    between atoms: _25  and  _26
REMARK   15  A    between atoms: _31  and  _32
REMARK   16  A    between atoms: _34  and  _36
REMARK   17  A    between atoms: _36  and  _37
REMARK   18  A    between atoms: _36  and  _39
REMARK   19  A    between atoms: _39  and  _40
REMARK   20  A    between atoms: _43  and  _45
REMARK   21  A    between atoms: _45  and  _46
REMARK   22  A    between atoms: _45  and  _48
REMARK   23  A    between atoms: _51  and  _53
REMARK   24  A    between atoms: _53  and  _54
REMARK   25  A    between atoms: _53  and  _56
REMARK   26  A    between atoms: _56  and  _57
REMARK   27  A    between atoms: _63  and  _65
REMARK   28  A    between atoms: _65  and  _66
REMARK   29  A    between atoms: _68  and  _70
REMARK   30  A    between atoms: _70  and  _71
REMARK   31  A    between atoms: _70  and  _73
REMARK   32  A    between atoms: _73  and  _74
REMARK   33  A    between atoms: _77  and  _79
REMARK   34  A    between atoms: _79  and  _80
REMARK   35  A    between atoms: _79  and  _82
REMARK   36  A    between atoms: _82  and  _83
REMARK   37  A    between atoms: _83  and  _84
REMARK   38  A    between atoms: _84  and  _85
REMARK   39  A    between atoms: _94  and  _96
REMARK   40  A    between atoms: _96  and  _97
REMARK   41  A    between atoms: _96  and  _99
REMARK   42  A    between atoms: _102  and  _104
REMARK   43  A    between atoms: _104  and  _105
REMARK   44  A    between atoms: _104  and  _107
REMARK   45  A    between atoms: _110  and  _111
REMARK   46  A    between atoms: _116  and  _118
REMARK   47  A    between atoms: _118  and  _119
REMARK   48  A    between atoms: _118  and  _121
REMARK   49  A    between atoms: _121  and  _122
REMARK   50  A    between atoms: _125  and  _127
REMARK   51  A    between atoms: _127  and  _128
REMARK   52  A    between atoms: _127  and  _130
REMARK   53  A    between atoms: _130  and  _131
REMARK   54  A    between atoms: _135  and  _137
REMARK   55  A    between atoms: _137  and  _138
REMARK   56  A    between atoms: _137  and  _140
REMARK   57  A    between atoms: _140  and  _141
REMARK   58  A    between atoms: _144  and  _146
REMARK   59  A    between atoms: _146  and  _147
REMARK   60  A    between atoms: _146  and  _149
REMARK   61  A    between atoms: _149  and  _150
REMARK   62  A    between atoms: _153  and  _155
REMARK   63  A    between atoms: _155  and  _156
REMARK   64  A    between atoms: _155  and  _158
REMARK   65  A    between atoms: _161  and  _163
REMARK   66  A    between atoms: _163  and  _164
REMARK   67  A    between atoms: _163  and  _166
REMARK   68  A    between atoms: _166  and  _167
REMARK   69  A    between atoms: _172  and  _173
REMARK   70  A    between atoms: _175  and  _177
REMARK   71  A    between atoms: _177  and  _178
REMARK   72  A    between atoms: _177  and  _180
REMARK   73  A    between atoms: _180  and  _181
REMARK   74  A    between atoms: _187  and  _189
REMARK   75  A    between atoms: _189  and  _190
REMARK   76  A    between atoms: _189  and  _192
REMARK   77  A    between atoms: _195  and  _197
REMARK   78  A    between atoms: _197  and  _198
REMARK   79  A    between atoms: _197  and  _200
REMARK   80  A    between atoms: _200  and  _201
REMARK   81  A    between atoms: _205  and  _206
REMARK   82  A    between atoms: _211  and  _213
REMARK   83  A    between atoms: _213  and  _214
REMARK   84  A    between atoms: _213  and  _216
REMARK   85  A    between atoms: _216  and  _217
REMARK   86  A    between atoms: _217  and  _218
REMARK   87  A    between atoms: _218  and  _219
REMARK   88  A    between atoms: _228  and  _230
REMARK   89  A    between atoms: _230  and  _231
REMARK   90  A    between atoms: _230  and  _233
REMARK   91  A    between atoms: _233  and  _234
REMARK   92  A    between atoms: _239  and  _240
REMARK   93  A    between atoms: _242  and  _244
REMARK   94  A    between atoms: _244  and  _245
REMARK   95  A    between atoms: _244  and  _247
REMARK   96  A    between atoms: _250  and  _252
REMARK   97  A    between atoms: _252  and  _253
REMARK   98  A    between atoms: _256  and  _258
REMARK   99  A    between atoms: _258  and  _259
REMARK  100  A    between atoms: _258  and  _261
REMARK  101  A    between atoms: _261  and  _262
REMARK  102  A    between atoms: _265  and  _267
REMARK  103  A    between atoms: _267  and  _268
REMARK  104  A    between atoms: _271  and  _273
REMARK  105  A    between atoms: _273  and  _274
REMARK  106  A    between atoms: _273  and  _276
REMARK  107  A    between atoms: _276  and  _277
REMARK  108  A    between atoms: _280  and  _282
REMARK  109  A    between atoms: _282  and  _283
REMARK  110  A    between atoms: _282  and  _285
REMARK  111  A    between atoms: _285  and  _286
REMARK  112  A    between atoms: _296  and  _298
REMARK  113  A    between atoms: _298  and  _299
REMARK  114  A    between atoms: _298  and  _301
REMARK  115  A    between atoms: _301  and  _302
REMARK  116  A    between atoms: _304  and  _306
REMARK  117  A    between atoms: _306  and  _307
REMARK  118  A    between atoms: _309  and  _311
REMARK  119  A    between atoms: _311  and  _312
REMARK                            x       y       z     vdW  Elec       q    Type
REMARK                         _______ _______ _______ _____ _____    ______ ____
ROOT
ATOM      1  O   HOH     1      -8.020  84.603  22.831  0.00  0.00    +0.000 OA
ENDROOT
TORSDOF 0
REMARK  Name = ../refined-set-2016/3sk2/3sk2_pocket.pdb
REMARK  119 active torsions:
REMARK  status: ('A' for Active; 'I' for Inactive)
REMARK    1  A    between atoms: _1  and  _3
REMARK    2  A    between atoms: _3  and  _4
REMARK    3  A    between atoms: _3  and  _6
REMARK    4  A    between atoms: _6  and  _7
REMARK    5  A    between atoms: _7  and  _8
REMARK    6  A    between atoms: _11  and  _13
REMARK    7  A    between atoms: _13  and  _14
REMARK    8  A    between atoms: _13  and  _16
REMARK    9  A    between atoms: _16  and  _17
REMARK   10  A    between atoms: _17  and  _18
REMARK   11  A    between atoms: _20  and  _22
REMARK   12  A    between atoms: _22  and  _23
REMARK   13  A    between atoms: _22  and  _25
REMARK   14  A    between atoms: _25  and  _26
REMARK   15  A    between atoms: _31  and  _32
REMARK   16  A    between atoms: _34  and  _36
REMARK   17  A    between atoms: _36  and  _37
REMARK   18  A    between atoms: _36  and  _39
REMARK   19  A    between atoms: _39  and  _40
REMARK   20  A    between atoms: _43  and  _45
REMARK   21  A    between atoms: _45  and  _46
REMARK   22  A    between atoms: _45  and  _48
REMARK   23  A    between atoms: _51  and  _53
REMARK   24  A    between atoms: _53  and  _54
REMARK   25  A    between atoms: _53  and  _56
REMARK   26  A    between atoms: _56  and  _57
REMARK   27  A    between atoms: _63  and  _65
REMARK   28  A    between atoms: _65  and  _66
REMARK   29  A    between atoms: _68  and  _70
REMARK   30  A    between atoms: _70  and  _71
REMARK   31  A    between atoms: _70  and  _73
REMARK   32  A    between atoms: _73  and  _74
REMARK   33  A    between atoms: _77  and  _79
REMARK   34  A    between atoms: _79  and  _80
REMARK   35  A    between atoms: _79  and  _82
REMARK   36  A    between atoms: _82  and  _83
REMARK   37  A    between atoms: _83  and  _84
REMARK   38  A    between atoms: _84  and  _85
REMARK   39  A    between atoms: _94  and  _96
REMARK   40  A    between atoms: _96  and  _97
REMARK   41  A    between atoms: _96  and  _99
REMARK   42  A    between atoms: _102  and  _104
REMARK   43  A    between atoms: _104  and  _105
REMARK   44  A    between atoms: _104  and  _107
REMARK   45  A    between atoms: _110  and  _111
REMARK   46  A    between atoms: _116  and  _118
REMARK   47  A    between atoms: _118  and  _119
REMARK   48  A    between atoms: _118  and  _121
REMARK   49  A    between atoms: _121  and  _122
REMARK   50  A    between atoms: _125  and  _127
REMARK   51  A    between atoms: _127  and  _128
REMARK   52  A    between atoms: _127  and  _130
REMARK   53  A    between atoms: _130  and  _131
REMARK   54  A    between atoms: _135  and  _137
REMARK   55  A    between atoms: _137  and  _138
REMARK   56  A    between atoms: _137  and  _140
REMARK   57  A    between atoms: _140  and  _141
REMARK   58  A    between atoms: _144  and  _146
REMARK   59  A    between atoms: _146  and  _147
REMARK   60  A    between atoms: _146  and  _149
REMARK   61  A    between atoms: _149  and  _150
REMARK   62  A    between atoms: _153  and  _155
REMARK   63  A    between atoms: _155  and  _156
REMARK   64  A    between atoms: _155  and  _158
REMARK   65  A    between atoms: _161  and  _163
REMARK   66  A    between atoms: _163  and  _164
REMARK   67  A    between atoms: _163  and  _166
REMARK   68  A    between atoms: _166  and  _167
REMARK   69  A    between atoms: _172  and  _173
REMARK   70  A    between atoms: _175  and  _177
REMARK   71  A    between atoms: _177  and  _178
REMARK   72  A    between atoms: _177  and  _180
REMARK   73  A    between atoms: _180  and  _181
REMARK   74  A    between atoms: _187  and  _189
REMARK   75  A    between atoms: _189  and  _190
REMARK   76  A    between atoms: _189  and  _192
REMARK   77  A    between atoms: _195  and  _197
REMARK   78  A    between atoms: _197  and  _198
REMARK   79  A    between atoms: _197  and  _200
REMARK   80  A    between atoms: _200  and  _201
REMARK   81  A    between atoms: _205  and  _206
REMARK   82  A    between atoms: _211  and  _213
REMARK   83  A    between atoms: _213  and  _214
REMARK   84  A    between atoms: _213  and  _216
REMARK   85  A    between atoms: _216  and  _217
REMARK   86  A    between atoms: _217  and  _218
REMARK   87  A    between atoms: _218  and  _219
REMARK   88  A    between atoms: _228  and  _230
REMARK   89  A    between atoms: _230  and  _231
REMARK   90  A    between atoms: _230  and  _233
REMARK   91  A    between atoms: _233  and  _234
REMARK   92  A    between atoms: _239  and  _240
REMARK   93  A    between atoms: _242  and  _244
REMARK   94  A    between atoms: _244  and  _245
REMARK   95  A    between atoms: _244  and  _247
REMARK   96  A    between atoms: _250  and  _252
REMARK   97  A    between atoms: _252  and  _253
REMARK   98  A    between atoms: _256  and  _258
REMARK   99  A    between atoms: _258  and  _259
REMARK  100  A    between atoms: _258  and  _261
REMARK  101  A    between atoms: _261  and  _262
REMARK  102  A    between atoms: _265  and  _267
REMARK  103  A    between atoms: _267  and  _268
REMARK  104  A    between atoms: _271  and  _273
REMARK  105  A    between atoms: _273  and  _274
REMARK  106  A    between atoms: _273  and  _276
REMARK  107  A    between atoms: _276  and  _277
REMARK  108  A    between atoms: _280  and  _282
REMARK  109  A    between atoms: _282  and  _283
REMARK  110  A    between atoms: _282  and  _285
REMARK  111  A    between atoms: _285  and  _286
REMARK  112  A    between atoms: _296  and  _298
REMARK  113  A    between atoms: _298  and  _299
REMARK  114  A    between atoms: _298  and  _301
REMARK  115  A    between atoms: _301  and  _302
REMARK  116  A    between atoms: _304  and  _306
REMARK  117  A    between atoms: _306  and  _307
REMARK  118  A    between atoms: _309  and  _311
REMARK  119  A    between atoms: _311  and  _312
REMARK                            x       y       z     vdW  Elec       q    Type
REMARK                         _______ _______ _______ _____ _____    ______ ____
ROOT
ATOM      1  O   HOH     1       9.172  88.993  22.369  0.00  0.00    +0.000 OA
ENDROOT
TORSDOF 0
