REMARK  Name = ../refined-set-2016/2aqu/2aqu_pocket.pdb
REMARK  214 active torsions:
REMARK  status: ('A' for Active; 'I' for Inactive)
REMARK    1  A    between atoms: _1  and  _3
REMARK    2  A    between atoms: _3  and  _4
REMARK    3  A    between atoms: _3  and  _6
REMARK    4  A    between atoms: _6  and  _7
REMARK    5  A    between atoms: _7  and  _8
REMARK    6  A    between atoms: _8  and  _9
REMARK    7  A    between atoms: _18  and  _20
REMARK    8  A    between atoms: _20  and  _21
REMARK    9  A    between atoms: _20  and  _23
REMARK   10  A    between atoms: _23  and  _24
REMARK   11  A    between atoms: _27  and  _29
REMARK   12  A    between atoms: _29  and  _30
REMARK   13  A    between atoms: _29  and  _32
REMARK   14  A    between atoms: _32  and  _33
REMARK   15  A    between atoms: _36  and  _38
REMARK   16  A    between atoms: _38  and  _39
REMARK   17  A    between atoms: _38  and  _41
REMARK   18  A    between atoms: _41  and  _42
REMARK   19  A    between atoms: _45  and  _47
REMARK   20  A    between atoms: _47  and  _48
REMARK   21  A    between atoms: _47  and  _50
REMARK   22  A    between atoms: _50  and  _51
REMARK   23  A    between atoms: _54  and  _56
REMARK   24  A    between atoms: _56  and  _57
REMARK   25  A    between atoms: _59  and  _61
REMARK   26  A    between atoms: _61  and  _62
REMARK   27  A    between atoms: _65  and  _67
REMARK   28  A    between atoms: _67  and  _68
REMARK   29  A    between atoms: _67  and  _70
REMARK   30  A    between atoms: _70  and  _71
REMARK   31  A    between atoms: _74  and  _76
REMARK   32  A    between atoms: _76  and  _77
REMARK   33  A    between atoms: _76  and  _79
REMARK   34  A    between atoms: _79  and  _80
REMARK   35  A    between atoms: _83  and  _85
REMARK   36  A    between atoms: _85  and  _86
REMARK   37  A    between atoms: _85  and  _88
REMARK   38  A    between atoms: _88  and  _89
REMARK   39  A    between atoms: _92  and  _94
REMARK   40  A    between atoms: _94  and  _95
REMARK   41  A    between atoms: _94  and  _97
REMARK   42  A    between atoms: _100  and  _102
REMARK   43  A    between atoms: _102  and  _103
REMARK   44  A    between atoms: _102  and  _105
REMARK   45  A    between atoms: _105  and  _106
REMARK   46  A    between atoms: _106  and  _107
REMARK   47  A    between atoms: _107  and  _108
REMARK   48  A    between atoms: _108  and  _109
REMARK   49  A    between atoms: _113  and  _115
REMARK   50  A    between atoms: _115  and  _116
REMARK   51  A    between atoms: _115  and  _118
REMARK   52  A    between atoms: _118  and  _119
REMARK   53  A    between atoms: _122  and  _124
REMARK   54  A    between atoms: _124  and  _125
REMARK   55  A    between atoms: _127  and  _129
REMARK   56  A    between atoms: _129  and  _130
REMARK   57  A    between atoms: _132  and  _134
REMARK   58  A    between atoms: _134  and  _135
REMARK   59  A    between atoms: _134  and  _137
REMARK   60  A    between atoms: _137  and  _138
REMARK   61  A    between atoms: _141  and  _143
REMARK   62  A    between atoms: _143  and  _144
REMARK   63  A    between atoms: _146  and  _148
REMARK   64  A    between atoms: _148  and  _149
REMARK   65  A    between atoms: _151  and  _153
REMARK   66  A    between atoms: _153  and  _154
REMARK   67  A    between atoms: _153  and  _156
REMARK   68  A    between atoms: _156  and  _157
REMARK   69  A    between atoms: _163  and  _165
REMARK   70  A    between atoms: _165  and  _166
REMARK   71  A    between atoms: _165  and  _168
REMARK   72  A    between atoms: _168  and  _169
REMARK   73  A    between atoms: _172  and  _174
REMARK   74  A    between atoms: _174  and  _175
REMARK   75  A    between atoms: _174  and  _177
REMARK   76  A    between atoms: _177  and  _178
REMARK   77  A    between atoms: _182  and  _183
REMARK   78  A    between atoms: _188  and  _190
REMARK   79  A    between atoms: _190  and  _191
REMARK   80  A    between atoms: _190  and  _193
REMARK   81  A    between atoms: _193  and  _194
REMARK   82  A    between atoms: _198  and  _199
REMARK   83  A    between atoms: _204  and  _206
REMARK   84  A    between atoms: _206  and  _207
REMARK   85  A    between atoms: _206  and  _209
REMARK   86  A    between atoms: _212  and  _214
REMARK   87  A    between atoms: _214  and  _215
REMARK   88  A    between atoms: _214  and  _217
REMARK   89  A    between atoms: _217  and  _218
REMARK   90  A    between atoms: _223  and  _225
REMARK   91  A    between atoms: _225  and  _226
REMARK   92  A    between atoms: _225  and  _228
REMARK   93  A    between atoms: _228  and  _229
REMARK   94  A    between atoms: _232  and  _234
REMARK   95  A    between atoms: _234  and  _235
REMARK   96  A    between atoms: _234  and  _237
REMARK   97  A    between atoms: _237  and  _238
REMARK   98  A    between atoms: _241  and  _243
REMARK   99  A    between atoms: _243  and  _244
REMARK  100  A    between atoms: _246  and  _248
REMARK  101  A    between atoms: _248  and  _249
REMARK  102  A    between atoms: _248  and  _251
REMARK  103  A    between atoms: _251  and  _252
REMARK  104  A    between atoms: _252  and  _253
REMARK  105  A    between atoms: _253  and  _254
REMARK  106  A    between atoms: _263  and  _265
REMARK  107  A    between atoms: _265  and  _266
REMARK  108  A    between atoms: _265  and  _268
REMARK  109  A    between atoms: _268  and  _269
REMARK  110  A    between atoms: _269  and  _270
REMARK  111  A    between atoms: _270  and  _271
REMARK  112  A    between atoms: _280  and  _282
REMARK  113  A    between atoms: _282  and  _283
REMARK  114  A    between atoms: _282  and  _285
REMARK  115  A    between atoms: _285  and  _286
REMARK  116  A    between atoms: _289  and  _291
REMARK  117  A    between atoms: _291  and  _292
REMARK  118  A    between atoms: _291  and  _294
REMARK  119  A    between atoms: _294  and  _295
REMARK  120  A    between atoms: _298  and  _300
REMARK  121  A    between atoms: _300  and  _301
REMARK  122  A    between atoms: _300  and  _303
REMARK  123  A    between atoms: _303  and  _304
REMARK  124  A    between atoms: _307  and  _309
REMARK  125  A    between atoms: _309  and  _310
REMARK  126  A    between atoms: _309  and  _312
REMARK  127  A    between atoms: _312  and  _313
REMARK  128  A    between atoms: _316  and  _318
REMARK  129  A    between atoms: _318  and  _319
REMARK  130  A    between atoms: _321  and  _323
REMARK  131  A    between atoms: _323  and  _324
REMARK  132  A    between atoms: _327  and  _329
REMARK  133  A    between atoms: _329  and  _330
REMARK  134  A    between atoms: _329  and  _332
REMARK  135  A    between atoms: _332  and  _333
REMARK  136  A    between atoms: _336  and  _338
REMARK  137  A    between atoms: _338  and  _339
REMARK  138  A    between atoms: _338  and  _341
REMARK  139  A    between atoms: _341  and  _342
REMARK  140  A    between atoms: _345  and  _347
REMARK  141  A    between atoms: _347  and  _348
REMARK  142  A    between atoms: _347  and  _350
REMARK  143  A    between atoms: _350  and  _351
REMARK  144  A    between atoms: _354  and  _356
REMARK  145  A    between atoms: _356  and  _357
REMARK  146  A    between atoms: _356  and  _359
REMARK  147  A    between atoms: _362  and  _364
REMARK  148  A    between atoms: _364  and  _365
REMARK  149  A    between atoms: _364  and  _367
REMARK  150  A    between atoms: _367  and  _368
REMARK  151  A    between atoms: _368  and  _369
REMARK  152  A    between atoms: _369  and  _370
REMARK  153  A    between atoms: _370  and  _371
REMARK  154  A    between atoms: _375  and  _377
REMARK  155  A    between atoms: _377  and  _378
REMARK  156  A    between atoms: _377  and  _380
REMARK  157  A    between atoms: _380  and  _381
REMARK  158  A    between atoms: _381  and  _382
REMARK  159  A    between atoms: _384  and  _386
REMARK  160  A    between atoms: _386  and  _387
REMARK  161  A    between atoms: _386  and  _389
REMARK  162  A    between atoms: _389  and  _390
REMARK  163  A    between atoms: _393  and  _395
REMARK  164  A    between atoms: _395  and  _396
REMARK  165  A    between atoms: _398  and  _400
REMARK  166  A    between atoms: _400  and  _401
REMARK  167  A    between atoms: _403  and  _405
REMARK  168  A    between atoms: _405  and  _406
REMARK  169  A    between atoms: _405  and  _408
REMARK  170  A    between atoms: _408  and  _409
REMARK  171  A    between atoms: _412  and  _414
REMARK  172  A    between atoms: _414  and  _415
REMARK  173  A    between atoms: _417  and  _419
REMARK  174  A    between atoms: _419  and  _420
REMARK  175  A    between atoms: _422  and  _424
REMARK  176  A    between atoms: _424  and  _425
REMARK  177  A    between atoms: _424  and  _427
REMARK  178  A    between atoms: _427  and  _428
REMARK  179  A    between atoms: _434  and  _436
REMARK  180  A    between atoms: _436  and  _437
REMARK  181  A    between atoms: _436  and  _439
REMARK  182  A    between atoms: _439  and  _440
REMARK  183  A    between atoms: _443  and  _445
REMARK  184  A    between atoms: _445  and  _446
REMARK  185  A    between atoms: _445  and  _448
REMARK  186  A    between atoms: _448  and  _449
REMARK  187  A    between atoms: _452  and  _454
REMARK  188  A    between atoms: _454  and  _455
REMARK  189  A    between atoms: _454  and  _457
REMARK  190  A    between atoms: _457  and  _458
REMARK  191  A    between atoms: _462  and  _463
REMARK  192  A    between atoms: _468  and  _470
REMARK  193  A    between atoms: _470  and  _471
REMARK  194  A    between atoms: _470  and  _473
REMARK  195  A    between atoms: _476  and  _478
REMARK  196  A    between atoms: _478  and  _479
REMARK  197  A    between atoms: _478  and  _481
REMARK  198  A    between atoms: _481  and  _482
REMARK  199  A    between atoms: _487  and  _489
REMARK  200  A    between atoms: _489  and  _490
REMARK  201  A    between atoms: _489  and  _492
REMARK  202  A    between atoms: _492  and  _493
REMARK  203  A    between atoms: _496  and  _498
REMARK  204  A    between atoms: _498  and  _499
REMARK  205  A    between atoms: _498  and  _501
REMARK  206  A    between atoms: _501  and  _502
REMARK  207  A    between atoms: _505  and  _507
REMARK  208  A    between atoms: _507  and  _508
REMARK  209  A    between atoms: _510  and  _512
REMARK  210  A    between atoms: _512  and  _513
REMARK  211  A    between atoms: _512  and  _515
REMARK  212  A    between atoms: _515  and  _516
REMARK  213  A    between atoms: _516  and  _517
REMARK  214  A    between atoms: _517  and  _518
REMARK                            x       y       z     vdW  Elec       q    Type
REMARK                         _______ _______ _______ _____ _____    ______ ____
ROOT
ATOM      1  NE  ARG A   1     -34.903  77.340  22.287  0.00  0.00    -0.265 N 
ATOM      2  CZ  ARG A   1     -33.831  76.640  21.959  0.00  0.00    +0.342 C 
ATOM      3  NH2 ARG A   1     -32.665  76.937  22.529  0.00  0.00    -0.292 N 
ATOM      4 HH21 ARG A   1     -32.607  77.711  23.222  0.00  0.00    +0.255 HD
ATOM      5 HH22 ARG A   1     -31.812  76.395  22.281  0.00  0.00    +0.255 HD
ATOM      6  NH1 ARG A   1     -33.885  75.641  21.093  0.00  0.00    -0.292 N 
ATOM      7 HH11 ARG A   1     -33.022  75.110  20.857  0.00  0.00    +0.255 HD
ATOM      8 HH12 ARG A   1     -34.790  75.387  20.648  0.00  0.00    +0.255 HD
ATOM      9  HE  ARG A   1     -35.811  77.104  21.837  0.00  0.00    +0.259 HD
ENDROOT
BRANCH   1  10
ATOM     10  CD  ARG A   1     -34.863  78.424  23.250  0.00  0.00    +0.174 C 
BRANCH  10  11
ATOM     11  CG  ARG A   1     -36.108  79.241  23.118  0.00  0.00    +0.045 C 
BRANCH  11  12
ATOM     12  CB  ARG A   1     -36.011  80.578  23.794  0.00  0.00    +0.029 C 
BRANCH  12  13
ATOM     13  CA  ARG A   1     -37.247  81.395  23.438  0.00  0.00    +0.133 C 
BRANCH  13  14
ATOM     14  N   ARG A   1     -37.084  82.063  22.134  0.00  0.00    -0.239 NA
ATOM     15  H   ARG A   1     -36.164  82.061  21.650  0.00  0.00    +0.142 HD
ENDBRANCH  13  14
BRANCH  13  16
ATOM     16  C   ARG A   1     -37.469  82.463  24.493  0.00  0.00    +0.224 C 
ATOM     17  O   ARG A   1     -36.756  83.473  24.519  0.00  0.00    -0.287 OA
ENDBRANCH  13  16
ENDBRANCH  12  13
ENDBRANCH  11  12
ENDBRANCH  10  11
ENDBRANCH   1  10
TORSDOF 6
REMARK  Name = ../refined-set-2016/2aqu/2aqu_pocket.pdb
REMARK  214 active torsions:
REMARK  status: ('A' for Active; 'I' for Inactive)
REMARK    1  A    between atoms: _1  and  _3
REMARK    2  A    between atoms: _3  and  _4
REMARK    3  A    between atoms: _3  and  _6
REMARK    4  A    between atoms: _6  and  _7
REMARK    5  A    between atoms: _7  and  _8
REMARK    6  A    between atoms: _8  and  _9
REMARK    7  A    between atoms: _18  and  _20
REMARK    8  A    between atoms: _20  and  _21
REMARK    9  A    between atoms: _20  and  _23
REMARK   10  A    between atoms: _23  and  _24
REMARK   11  A    between atoms: _27  and  _29
REMARK   12  A    between atoms: _29  and  _30
REMARK   13  A    between atoms: _29  and  _32
REMARK   14  A    between atoms: _32  and  _33
REMARK   15  A    between atoms: _36  and  _38
REMARK   16  A    between atoms: _38  and  _39
REMARK   17  A    between atoms: _38  and  _41
REMARK   18  A    between atoms: _41  and  _42
REMARK   19  A    between atoms: _45  and  _47
REMARK   20  A    between atoms: _47  and  _48
REMARK   21  A    between atoms: _47  and  _50
REMARK   22  A    between atoms: _50  and  _51
REMARK   23  A    between atoms: _54  and  _56
REMARK   24  A    between atoms: _56  and  _57
REMARK   25  A    between atoms: _59  and  _61
REMARK   26  A    between atoms: _61  and  _62
REMARK   27  A    between atoms: _65  and  _67
REMARK   28  A    between atoms: _67  and  _68
REMARK   29  A    between atoms: _67  and  _70
REMARK   30  A    between atoms: _70  and  _71
REMARK   31  A    between atoms: _74  and  _76
REMARK   32  A    between atoms: _76  and  _77
REMARK   33  A    between atoms: _76  and  _79
REMARK   34  A    between atoms: _79  and  _80
REMARK   35  A    between atoms: _83  and  _85
REMARK   36  A    between atoms: _85  and  _86
REMARK   37  A    between atoms: _85  and  _88
REMARK   38  A    between atoms: _88  and  _89
REMARK   39  A    between atoms: _92  and  _94
REMARK   40  A    between atoms: _94  and  _95
REMARK   41  A    between atoms: _94  and  _97
REMARK   42  A    between atoms: _100  and  _102
REMARK   43  A    between atoms: _102  and  _103
REMARK   44  A    between atoms: _102  and  _105
REMARK   45  A    between atoms: _105  and  _106
REMARK   46  A    between atoms: _106  and  _107
REMARK   47  A    between atoms: _107  and  _108
REMARK   48  A    between atoms: _108  and  _109
REMARK   49  A    between atoms: _113  and  _115
REMARK   50  A    between atoms: _115  and  _116
REMARK   51  A    between atoms: _115  and  _118
REMARK   52  A    between atoms: _118  and  _119
REMARK   53  A    between atoms: _122  and  _124
REMARK   54  A    between atoms: _124  and  _125
REMARK   55  A    between atoms: _127  and  _129
REMARK   56  A    between atoms: _129  and  _130
REMARK   57  A    between atoms: _132  and  _134
REMARK   58  A    between atoms: _134  and  _135
REMARK   59  A    between atoms: _134  and  _137
REMARK   60  A    between atoms: _137  and  _138
REMARK   61  A    between atoms: _141  and  _143
REMARK   62  A    between atoms: _143  and  _144
REMARK   63  A    between atoms: _146  and  _148
REMARK   64  A    between atoms: _148  and  _149
REMARK   65  A    between atoms: _151  and  _153
REMARK   66  A    between atoms: _153  and  _154
REMARK   67  A    between atoms: _153  and  _156
REMARK   68  A    between atoms: _156  and  _157
REMARK   69  A    between atoms: _163  and  _165
REMARK   70  A    between atoms: _165  and  _166
REMARK   71  A    between atoms: _165  and  _168
REMARK   72  A    between atoms: _168  and  _169
REMARK   73  A    between atoms: _172  and  _174
REMARK   74  A    between atoms: _174  and  _175
REMARK   75  A    between atoms: _174  and  _177
REMARK   76  A    between atoms: _177  and  _178
REMARK   77  A    between atoms: _182  and  _183
REMARK   78  A    between atoms: _188  and  _190
REMARK   79  A    between atoms: _190  and  _191
REMARK   80  A    between atoms: _190  and  _193
REMARK   81  A    between atoms: _193  and  _194
REMARK   82  A    between atoms: _198  and  _199
REMARK   83  A    between atoms: _204  and  _206
REMARK   84  A    between atoms: _206  and  _207
REMARK   85  A    between atoms: _206  and  _209
REMARK   86  A    between atoms: _212  and  _214
REMARK   87  A    between atoms: _214  and  _215
REMARK   88  A    between atoms: _214  and  _217
REMARK   89  A    between atoms: _217  and  _218
REMARK   90  A    between atoms: _223  and  _225
REMARK   91  A    between atoms: _225  and  _226
REMARK   92  A    between atoms: _225  and  _228
REMARK   93  A    between atoms: _228  and  _229
REMARK   94  A    between atoms: _232  and  _234
REMARK   95  A    between atoms: _234  and  _235
REMARK   96  A    between atoms: _234  and  _237
REMARK   97  A    between atoms: _237  and  _238
REMARK   98  A    between atoms: _241  and  _243
REMARK   99  A    between atoms: _243  and  _244
REMARK  100  A    between atoms: _246  and  _248
REMARK  101  A    between atoms: _248  and  _249
REMARK  102  A    between atoms: _248  and  _251
REMARK  103  A    between atoms: _251  and  _252
REMARK  104  A    between atoms: _252  and  _253
REMARK  105  A    between atoms: _253  and  _254
REMARK  106  A    between atoms: _263  and  _265
REMARK  107  A    between atoms: _265  and  _266
REMARK  108  A    between atoms: _265  and  _268
REMARK  109  A    between atoms: _268  and  _269
REMARK  110  A    between atoms: _269  and  _270
REMARK  111  A    between atoms: _270  and  _271
REMARK  112  A    between atoms: _280  and  _282
REMARK  113  A    between atoms: _282  and  _283
REMARK  114  A    between atoms: _282  and  _285
REMARK  115  A    between atoms: _285  and  _286
REMARK  116  A    between atoms: _289  and  _291
REMARK  117  A    between atoms: _291  and  _292
REMARK  118  A    between atoms: _291  and  _294
REMARK  119  A    between atoms: _294  and  _295
REMARK  120  A    between atoms: _298  and  _300
REMARK  121  A    between atoms: _300  and  _301
REMARK  122  A    between atoms: _300  and  _303
REMARK  123  A    between atoms: _303  and  _304
REMARK  124  A    between atoms: _307  and  _309
REMARK  125  A    between atoms: _309  and  _310
REMARK  126  A    between atoms: _309  and  _312
REMARK  127  A    between atoms: _312  and  _313
REMARK  128  A    between atoms: _316  and  _318
REMARK  129  A    between atoms: _318  and  _319
REMARK  130  A    between atoms: _321  and  _323
REMARK  131  A    between atoms: _323  and  _324
REMARK  132  A    between atoms: _327  and  _329
REMARK  133  A    between atoms: _329  and  _330
REMARK  134  A    between atoms: _329  and  _332
REMARK  135  A    between atoms: _332  and  _333
REMARK  136  A    between atoms: _336  and  _338
REMARK  137  A    between atoms: _338  and  _339
REMARK  138  A    between atoms: _338  and  _341
REMARK  139  A    between atoms: _341  and  _342
REMARK  140  A    between atoms: _345  and  _347
REMARK  141  A    between atoms: _347  and  _348
REMARK  142  A    between atoms: _347  and  _350
REMARK  143  A    between atoms: _350  and  _351
REMARK  144  A    between atoms: _354  and  _356
REMARK  145  A    between atoms: _356  and  _357
REMARK  146  A    between atoms: _356  and  _359
REMARK  147  A    between atoms: _362  and  _364
REMARK  148  A    between atoms: _364  and  _365
REMARK  149  A    between atoms: _364  and  _367
REMARK  150  A    between atoms: _367  and  _368
REMARK  151  A    between atoms: _368  and  _369
REMARK  152  A    between atoms: _369  and  _370
REMARK  153  A    between atoms: _370  and  _371
REMARK  154  A    between atoms: _375  and  _377
REMARK  155  A    between atoms: _377  and  _378
REMARK  156  A    between atoms: _377  and  _380
REMARK  157  A    between atoms: _380  and  _381
REMARK  158  A    between atoms: _381  and  _382
REMARK  159  A    between atoms: _384  and  _386
REMARK  160  A    between atoms: _386  and  _387
REMARK  161  A    between atoms: _386  and  _389
REMARK  162  A    between atoms: _389  and  _390
REMARK  163  A    between atoms: _393  and  _395
REMARK  164  A    between atoms: _395  and  _396
REMARK  165  A    between atoms: _398  and  _400
REMARK  166  A    between atoms: _400  and  _401
REMARK  167  A    between atoms: _403  and  _405
REMARK  168  A    between atoms: _405  and  _406
REMARK  169  A    between atoms: _405  and  _408
REMARK  170  A    between atoms: _408  and  _409
REMARK  171  A    between atoms: _412  and  _414
REMARK  172  A    between atoms: _414  and  _415
REMARK  173  A    between atoms: _417  and  _419
REMARK  174  A    between atoms: _419  and  _420
REMARK  175  A    between atoms: _422  and  _424
REMARK  176  A    between atoms: _424  and  _425
REMARK  177  A    between atoms: _424  and  _427
REMARK  178  A    between atoms: _427  and  _428
REMARK  179  A    between atoms: _434  and  _436
REMARK  180  A    between atoms: _436  and  _437
REMARK  181  A    between atoms: _436  and  _439
REMARK  182  A    between atoms: _439  and  _440
REMARK  183  A    between atoms: _443  and  _445
REMARK  184  A    between atoms: _445  and  _446
REMARK  185  A    between atoms: _445  and  _448
REMARK  186  A    between atoms: _448  and  _449
REMARK  187  A    between atoms: _452  and  _454
REMARK  188  A    between atoms: _454  and  _455
REMARK  189  A    between atoms: _454  and  _457
REMARK  190  A    between atoms: _457  and  _458
REMARK  191  A    between atoms: _462  and  _463
REMARK  192  A    between atoms: _468  and  _470
REMARK  193  A    between atoms: _470  and  _471
REMARK  194  A    between atoms: _470  and  _473
REMARK  195  A    between atoms: _476  and  _478
REMARK  196  A    between atoms: _478  and  _479
REMARK  197  A    between atoms: _478  and  _481
REMARK  198  A    between atoms: _481  and  _482
REMARK  199  A    between atoms: _487  and  _489
REMARK  200  A    between atoms: _489  and  _490
REMARK  201  A    between atoms: _489  and  _492
REMARK  202  A    between atoms: _492  and  _493
REMARK  203  A    between atoms: _496  and  _498
REMARK  204  A    between atoms: _498  and  _499
REMARK  205  A    between atoms: _498  and  _501
REMARK  206  A    between atoms: _501  and  _502
REMARK  207  A    between atoms: _505  and  _507
REMARK  208  A    between atoms: _507  and  _508
REMARK  209  A    between atoms: _510  and  _512
REMARK  210  A    between atoms: _512  and  _513
REMARK  211  A    between atoms: _512  and  _515
REMARK  212  A    between atoms: _515  and  _516
REMARK  213  A    between atoms: _516  and  _517
REMARK  214  A    between atoms: _517  and  _518
REMARK                            x       y       z     vdW  Elec       q    Type
REMARK                         _______ _______ _______ _____ _____    ______ ____
ROOT
ATOM      1  C   GLY A   5     -44.496  72.508  31.246  0.00  0.00    +0.243 C 
ATOM      2  N   ALA A   6     -44.079  73.234  32.267  0.00  0.00    -0.297 N 
ATOM      3  H   ALA A   6     -44.339  74.239  32.320  0.00  0.00    +0.150 HD
ATOM      4  O   GLY A   5     -44.294  71.285  31.149  0.00  0.00    -0.273 OA
ENDROOT
BRANCH   2   5
ATOM      5  CA  ALA A   6     -43.260  72.649  33.320  0.00  0.00    +0.149 C 
ATOM      6  CB  ALA A   6     -41.880  73.273  33.298  0.00  0.00    +0.031 C 
BRANCH   5   7
ATOM      7  C   ALA A   6     -43.936  72.873  34.680  0.00  0.00    +0.241 C 
ATOM      8  N   ASP A   7     -44.281  71.773  35.352  0.00  0.00    -0.297 N 
ATOM      9  H   ASP A   7     -44.068  70.838  34.949  0.00  0.00    +0.150 HD
ATOM     10  O   ALA A   6     -44.148  74.013  35.103  0.00  0.00    -0.273 OA
BRANCH   8  11
ATOM     11  CA  ASP A   7     -44.957  71.865  36.652  0.00  0.00    +0.160 C 
BRANCH  11  12
ATOM     12  C   ASP A   7     -43.937  72.408  37.641  0.00  0.00    +0.241 C 
ATOM     13  O   ASP A   7     -44.271  73.203  38.509  0.00  0.00    -0.273 OA
ATOM     14  N   ASP A   8     -42.694  71.956  37.501  0.00  0.00    -0.297 N 
ATOM     15  H   ASP A   8     -42.487  71.297  36.723  0.00  0.00    +0.150 HD
BRANCH  14  16
ATOM     16  CA  ASP A   8     -41.609  72.347  38.395  0.00  0.00    +0.160 C 
BRANCH  16  17
ATOM     17  C   ASP A   8     -40.541  73.260  37.767  0.00  0.00    +0.241 C 
ATOM     18  N   THR A   9     -39.702  73.812  38.644  0.00  0.00    -0.295 N 
ATOM     19  H   THR A   9     -39.840  73.610  39.655  0.00  0.00    +0.150 HD
ATOM     20  O   ASP A   8     -40.472  73.439  36.541  0.00  0.00    -0.273 OA
BRANCH  18  21
ATOM     21  CA  THR A   9     -38.602  74.683  38.256  0.00  0.00    +0.176 C 
BRANCH  21  22
ATOM     22  C   THR A   9     -37.328  73.849  38.359  0.00  0.00    +0.243 C 
ATOM     23  O   THR A   9     -37.011  73.315  39.420  0.00  0.00    -0.273 OA
ATOM     24  N   VAL A  10     -36.589  73.759  37.257  0.00  0.00    -0.298 N 
ATOM     25  H   VAL A  10     -36.880  74.270  36.399  0.00  0.00    +0.150 HD
BRANCH  24  26
ATOM     26  CA  VAL A  10     -35.380  72.955  37.240  0.00  0.00    +0.137 C 
BRANCH  26  27
ATOM     27  CB  VAL A  10     -35.552  71.719  36.343  0.00  0.00    +0.026 C 
ATOM     28  CG2 VAL A  10     -34.523  70.685  36.741  0.00  0.00    +0.002 C 
ATOM     29  CG1 VAL A  10     -36.981  71.197  36.442  0.00  0.00    +0.002 C 
ENDBRANCH  26  27
BRANCH  26  30
ATOM     30  C   VAL A  10     -34.107  73.651  36.766  0.00  0.00    +0.227 C 
ATOM     31  O   VAL A  10     -34.017  74.103  35.629  0.00  0.00    -0.286 OA
ENDBRANCH  26  30
ENDBRANCH  24  26
ENDBRANCH  21  22
BRANCH  21  32
ATOM     32  CB  THR A   9     -38.534  75.885  39.206  0.00  0.00    +0.137 C 
ATOM     33  CG2 THR A   9     -37.192  76.665  39.066  0.00  0.00    +0.034 C 
BRANCH  32  34
ATOM     34  OG1 THR A   9     -39.626  76.751  38.912  0.00  0.00    -0.382 OA
ATOM     35  HG1 THR A   9     -40.477  76.263  39.042  0.00  0.00    +0.210 HD
ENDBRANCH  32  34
ENDBRANCH  21  32
ENDBRANCH  18  21
ENDBRANCH  16  17
BRANCH  16  36
ATOM     36  CB  ASP A   8     -40.884  71.093  38.919  0.00  0.00    +0.143 C 
BRANCH  36  37
ATOM     37  CG  ASP A   8     -41.810  70.125  39.664  0.00  0.00    +0.367 C 
ATOM     38  OD2 ASP A   8     -42.694  70.593  40.404  0.00  0.00    -0.246 OA
ATOM     39  OD1 ASP A   8     -41.627  68.901  39.520  0.00  0.00    -0.246 OA
ENDBRANCH  36  37
ENDBRANCH  16  36
ENDBRANCH  14  16
ENDBRANCH  11  12
BRANCH  11  40
ATOM     40  CB  ASP A   7     -45.394  70.479  37.169  0.00  0.00    +0.143 C 
BRANCH  40  41
ATOM     41  CG  ASP A   7     -46.483  69.807  36.291  0.00  0.00    +0.367 C 
ATOM     42  OD2 ASP A   7     -46.794  68.626  36.581  0.00  0.00    -0.246 OA
ATOM     43  OD1 ASP A   7     -47.011  70.438  35.364  0.00  0.00    -0.246 OA
ENDBRANCH  40  41
ENDBRANCH  11  40
ENDBRANCH   8  11
ENDBRANCH   5   7
ENDBRANCH   2   5
BRANCH   1  44
ATOM     44  CA  GLY A   5     -45.308  73.230  30.190  0.00  0.00    +0.176 C 
BRANCH  44  47
ATOM     45  C   THR A   4     -45.962  75.468  30.928  0.00  0.00    +0.243 C 
ATOM     46  O   THR A   4     -46.933  75.041  31.558  0.00  0.00    -0.273 OA
ATOM     47  N   GLY A   5     -45.126  74.666  30.265  0.00  0.00    -0.295 N 
ATOM     48  H   GLY A   5     -44.309  75.090  29.781  0.00  0.00    +0.150 HD
BRANCH  45  49
ATOM     49  CA  THR A   4     -45.682  76.944  30.922  0.00  0.00    +0.176 C 
BRANCH  49  52
ATOM     50  C   ASP A   3     -43.285  76.873  31.261  0.00  0.00    +0.241 C 
ATOM     51  O   ASP A   3     -43.365  76.200  32.304  0.00  0.00    -0.273 OA
ATOM     52  N   THR A   4     -44.327  77.251  30.524  0.00  0.00    -0.295 N 
ATOM     53  H   THR A   4     -44.163  77.779  29.643  0.00  0.00    +0.150 HD
BRANCH  50  54
ATOM     54  CA  ASP A   3     -41.943  77.291  30.699  0.00  0.00    +0.160 C 
BRANCH  54  56
ATOM     55  C   LEU A   2     -41.064  79.555  30.470  0.00  0.00    +0.241 C 
ATOM     56  N   ASP A   3     -41.365  78.517  31.233  0.00  0.00    -0.297 N 
ATOM     57  H   ASP A   3     -41.182  78.579  32.255  0.00  0.00    +0.150 HD
ATOM     58  O   LEU A   2     -41.412  79.656  29.262  0.00  0.00    -0.273 OA
BRANCH  55  59
ATOM     59  CA  LEU A   2     -40.262  80.655  31.199  0.00  0.00    +0.149 C 
BRANCH  59  62
ATOM     60  C   LEU A   1     -38.081  79.703  30.950  0.00  0.00    +0.238 C 
ATOM     61  O   LEU A   1     -38.340  78.941  31.875  0.00  0.00    -0.274 OA
ATOM     62  N   LEU A   2     -38.940  80.632  30.574  0.00  0.00    -0.297 N 
ATOM     63  H   LEU A   2     -38.682  81.332  29.849  0.00  0.00    +0.150 HD
BRANCH  60  64
ATOM     64  CA  LEU A   1     -36.724  79.662  30.225  0.00  0.00    +0.145 C 
BRANCH  64  65
ATOM     65  N   LEU A   1     -35.608  79.723  31.144  0.00  0.00    -0.238 NA
ATOM     66  H   LEU A   1     -35.222  78.830  31.512  0.00  0.00    +0.142 HD
ENDBRANCH  64  65
BRANCH  64  67
ATOM     67  CB  LEU A   1     -36.531  78.365  29.397  0.00  0.00    +0.026 C 
BRANCH  67  68
ATOM     68  CG  LEU A   1     -37.207  78.083  28.051  0.00  0.00    +0.002 C 
ATOM     69  CD2 LEU A   1     -37.150  76.565  27.751  0.00  0.00    +0.000 C 
ATOM     70  CD1 LEU A   1     -36.528  78.809  26.903  0.00  0.00    +0.000 C 
ENDBRANCH  67  68
ENDBRANCH  64  67
ENDBRANCH  60  64
ENDBRANCH  59  62
BRANCH  59  71
ATOM     71  CB  LEU A   2     -40.915  82.010  31.016  0.00  0.00    +0.029 C 
BRANCH  71  72
ATOM     72  CG  LEU A   2     -40.152  83.190  31.640  0.00  0.00    +0.002 C 
ATOM     73  CD2 LEU A   2     -39.945  83.095  33.141  0.00  0.00    +0.000 C 
ATOM     74  CD1 LEU A   2     -40.987  84.445  31.344  0.00  0.00    +0.000 C 
ENDBRANCH  71  72
ENDBRANCH  59  71
ENDBRANCH  55  59
ENDBRANCH  54  56
BRANCH  54  75
ATOM     75  CB  ASP A   3     -40.882  76.208  30.950  0.00  0.00    +0.143 C 
BRANCH  75  76
ATOM     76  CG  ASP A   3     -41.223  74.889  30.327  0.00  0.00    +0.367 C 
ATOM     77  OD2 ASP A   3     -40.442  73.929  30.474  0.00  0.00    -0.246 OA
ATOM     78  OD1 ASP A   3     -42.290  74.808  29.700  0.00  0.00    -0.246 OA
ENDBRANCH  75  76
ENDBRANCH  54  75
ENDBRANCH  50  54
ENDBRANCH  49  52
BRANCH  49  79
ATOM     79  CB  THR A   4     -46.744  77.639  30.001  0.00  0.00    +0.137 C 
ATOM     80  CG2 THR A   4     -46.682  79.165  30.189  0.00  0.00    +0.034 C 
BRANCH  79  81
ATOM     81  OG1 THR A   4     -46.509  77.308  28.611  0.00  0.00    -0.382 OA
ATOM     82  HG1 THR A   4     -46.573  76.327  28.491  0.00  0.00    +0.210 HD
ENDBRANCH  79  81
ENDBRANCH  49  79
ENDBRANCH  45  49
ENDBRANCH  44  47
ENDBRANCH   1  44
TORSDOF 35
REMARK  Name = ../refined-set-2016/2aqu/2aqu_pocket.pdb
REMARK  214 active torsions:
REMARK  status: ('A' for Active; 'I' for Inactive)
REMARK    1  A    between atoms: _1  and  _3
REMARK    2  A    between atoms: _3  and  _4
REMARK    3  A    between atoms: _3  and  _6
REMARK    4  A    between atoms: _6  and  _7
REMARK    5  A    between atoms: _7  and  _8
REMARK    6  A    between atoms: _8  and  _9
REMARK    7  A    between atoms: _18  and  _20
REMARK    8  A    between atoms: _20  and  _21
REMARK    9  A    between atoms: _20  and  _23
REMARK   10  A    between atoms: _23  and  _24
REMARK   11  A    between atoms: _27  and  _29
REMARK   12  A    between atoms: _29  and  _30
REMARK   13  A    between atoms: _29  and  _32
REMARK   14  A    between atoms: _32  and  _33
REMARK   15  A    between atoms: _36  and  _38
REMARK   16  A    between atoms: _38  and  _39
REMARK   17  A    between atoms: _38  and  _41
REMARK   18  A    between atoms: _41  and  _42
REMARK   19  A    between atoms: _45  and  _47
REMARK   20  A    between atoms: _47  and  _48
REMARK   21  A    between atoms: _47  and  _50
REMARK   22  A    between atoms: _50  and  _51
REMARK   23  A    between atoms: _54  and  _56
REMARK   24  A    between atoms: _56  and  _57
REMARK   25  A    between atoms: _59  and  _61
REMARK   26  A    between atoms: _61  and  _62
REMARK   27  A    between atoms: _65  and  _67
REMARK   28  A    between atoms: _67  and  _68
REMARK   29  A    between atoms: _67  and  _70
REMARK   30  A    between atoms: _70  and  _71
REMARK   31  A    between atoms: _74  and  _76
REMARK   32  A    between atoms: _76  and  _77
REMARK   33  A    between atoms: _76  and  _79
REMARK   34  A    between atoms: _79  and  _80
REMARK   35  A    between atoms: _83  and  _85
REMARK   36  A    between atoms: _85  and  _86
REMARK   37  A    between atoms: _85  and  _88
REMARK   38  A    between atoms: _88  and  _89
REMARK   39  A    between atoms: _92  and  _94
REMARK   40  A    between atoms: _94  and  _95
REMARK   41  A    between atoms: _94  and  _97
REMARK   42  A    between atoms: _100  and  _102
REMARK   43  A    between atoms: _102  and  _103
REMARK   44  A    between atoms: _102  and  _105
REMARK   45  A    between atoms: _105  and  _106
REMARK   46  A    between atoms: _106  and  _107
REMARK   47  A    between atoms: _107  and  _108
REMARK   48  A    between atoms: _108  and  _109
REMARK   49  A    between atoms: _113  and  _115
REMARK   50  A    between atoms: _115  and  _116
REMARK   51  A    between atoms: _115  and  _118
REMARK   52  A    between atoms: _118  and  _119
REMARK   53  A    between atoms: _122  and  _124
REMARK   54  A    between atoms: _124  and  _125
REMARK   55  A    between atoms: _127  and  _129
REMARK   56  A    between atoms: _129  and  _130
REMARK   57  A    between atoms: _132  and  _134
REMARK   58  A    between atoms: _134  and  _135
REMARK   59  A    between atoms: _134  and  _137
REMARK   60  A    between atoms: _137  and  _138
REMARK   61  A    between atoms: _141  and  _143
REMARK   62  A    between atoms: _143  and  _144
REMARK   63  A    between atoms: _146  and  _148
REMARK   64  A    between atoms: _148  and  _149
REMARK   65  A    between atoms: _151  and  _153
REMARK   66  A    between atoms: _153  and  _154
REMARK   67  A    between atoms: _153  and  _156
REMARK   68  A    between atoms: _156  and  _157
REMARK   69  A    between atoms: _163  and  _165
REMARK   70  A    between atoms: _165  and  _166
REMARK   71  A    between atoms: _165  and  _168
REMARK   72  A    between atoms: _168  and  _169
REMARK   73  A    between atoms: _172  and  _174
REMARK   74  A    between atoms: _174  and  _175
REMARK   75  A    between atoms: _174  and  _177
REMARK   76  A    between atoms: _177  and  _178
REMARK   77  A    between atoms: _182  and  _183
REMARK   78  A    between atoms: _188  and  _190
REMARK   79  A    between atoms: _190  and  _191
REMARK   80  A    between atoms: _190  and  _193
REMARK   81  A    between atoms: _193  and  _194
REMARK   82  A    between atoms: _198  and  _199
REMARK   83  A    between atoms: _204  and  _206
REMARK   84  A    between atoms: _206  and  _207
REMARK   85  A    between atoms: _206  and  _209
REMARK   86  A    between atoms: _212  and  _214
REMARK   87  A    between atoms: _214  and  _215
REMARK   88  A    between atoms: _214  and  _217
REMARK   89  A    between atoms: _217  and  _218
REMARK   90  A    between atoms: _223  and  _225
REMARK   91  A    between atoms: _225  and  _226
REMARK   92  A    between atoms: _225  and  _228
REMARK   93  A    between atoms: _228  and  _229
REMARK   94  A    between atoms: _232  and  _234
REMARK   95  A    between atoms: _234  and  _235
REMARK   96  A    between atoms: _234  and  _237
REMARK   97  A    between atoms: _237  and  _238
REMARK   98  A    between atoms: _241  and  _243
REMARK   99  A    between atoms: _243  and  _244
REMARK  100  A    between atoms: _246  and  _248
REMARK  101  A    between atoms: _248  and  _249
REMARK  102  A    between atoms: _248  and  _251
REMARK  103  A    between atoms: _251  and  _252
REMARK  104  A    between atoms: _252  and  _253
REMARK  105  A    between atoms: _253  and  _254
REMARK  106  A    between atoms: _263  and  _265
REMARK  107  A    between atoms: _265  and  _266
REMARK  108  A    between atoms: _265  and  _268
REMARK  109  A    between atoms: _268  and  _269
REMARK  110  A    between atoms: _269  and  _270
REMARK  111  A    between atoms: _270  and  _271
REMARK  112  A    between atoms: _280  and  _282
REMARK  113  A    between atoms: _282  and  _283
REMARK  114  A    between atoms: _282  and  _285
REMARK  115  A    between atoms: _285  and  _286
REMARK  116  A    between atoms: _289  and  _291
REMARK  117  A    between atoms: _291  and  _292
REMARK  118  A    between atoms: _291  and  _294
REMARK  119  A    between atoms: _294  and  _295
REMARK  120  A    between atoms: _298  and  _300
REMARK  121  A    between atoms: _300  and  _301
REMARK  122  A    between atoms: _300  and  _303
REMARK  123  A    between atoms: _303  and  _304
REMARK  124  A    between atoms: _307  and  _309
REMARK  125  A    between atoms: _309  and  _310
REMARK  126  A    between atoms: _309  and  _312
REMARK  127  A    between atoms: _312  and  _313
REMARK  128  A    between atoms: _316  and  _318
REMARK  129  A    between atoms: _318  and  _319
REMARK  130  A    between atoms: _321  and  _323
REMARK  131  A    between atoms: _323  and  _324
REMARK  132  A    between atoms: _327  and  _329
REMARK  133  A    between atoms: _329  and  _330
REMARK  134  A    between atoms: _329  and  _332
REMARK  135  A    between atoms: _332  and  _333
REMARK  136  A    between atoms: _336  and  _338
REMARK  137  A    between atoms: _338  and  _339
REMARK  138  A    between atoms: _338  and  _341
REMARK  139  A    between atoms: _341  and  _342
REMARK  140  A    between atoms: _345  and  _347
REMARK  141  A    between atoms: _347  and  _348
REMARK  142  A    between atoms: _347  and  _350
REMARK  143  A    between atoms: _350  and  _351
REMARK  144  A    between atoms: _354  and  _356
REMARK  145  A    between atoms: _356  and  _357
REMARK  146  A    between atoms: _356  and  _359
REMARK  147  A    between atoms: _362  and  _364
REMARK  148  A    between atoms: _364  and  _365
REMARK  149  A    between atoms: _364  and  _367
REMARK  150  A    between atoms: _367  and  _368
REMARK  151  A    between atoms: _368  and  _369
REMARK  152  A    between atoms: _369  and  _370
REMARK  153  A    between atoms: _370  and  _371
REMARK  154  A    between atoms: _375  and  _377
REMARK  155  A    between atoms: _377  and  _378
REMARK  156  A    between atoms: _377  and  _380
REMARK  157  A    between atoms: _380  and  _381
REMARK  158  A    between atoms: _381  and  _382
REMARK  159  A    between atoms: _384  and  _386
REMARK  160  A    between atoms: _386  and  _387
REMARK  161  A    between atoms: _386  and  _389
REMARK  162  A    between atoms: _389  and  _390
REMARK  163  A    between atoms: _393  and  _395
REMARK  164  A    between atoms: _395  and  _396
REMARK  165  A    between atoms: _398  and  _400
REMARK  166  A    between atoms: _400  and  _401
REMARK  167  A    between atoms: _403  and  _405
REMARK  168  A    between atoms: _405  and  _406
REMARK  169  A    between atoms: _405  and  _408
REMARK  170  A    between atoms: _408  and  _409
REMARK  171  A    between atoms: _412  and  _414
REMARK  172  A    between atoms: _414  and  _415
REMARK  173  A    between atoms: _417  and  _419
REMARK  174  A    between atoms: _419  and  _420
REMARK  175  A    between atoms: _422  and  _424
REMARK  176  A    between atoms: _424  and  _425
REMARK  177  A    between atoms: _424  and  _427
REMARK  178  A    between atoms: _427  and  _428
REMARK  179  A    between atoms: _434  and  _436
REMARK  180  A    between atoms: _436  and  _437
REMARK  181  A    between atoms: _436  and  _439
REMARK  182  A    between atoms: _439  and  _440
REMARK  183  A    between atoms: _443  and  _445
REMARK  184  A    between atoms: _445  and  _446
REMARK  185  A    between atoms: _445  and  _448
REMARK  186  A    between atoms: _448  and  _449
REMARK  187  A    between atoms: _452  and  _454
REMARK  188  A    between atoms: _454  and  _455
REMARK  189  A    between atoms: _454  and  _457
REMARK  190  A    between atoms: _457  and  _458
REMARK  191  A    between atoms: _462  and  _463
REMARK  192  A    between atoms: _468  and  _470
REMARK  193  A    between atoms: _470  and  _471
REMARK  194  A    between atoms: _470  and  _473
REMARK  195  A    between atoms: _476  and  _478
REMARK  196  A    between atoms: _478  and  _479
REMARK  197  A    between atoms: _478  and  _481
REMARK  198  A    between atoms: _481  and  _482
REMARK  199  A    between atoms: _487  and  _489
REMARK  200  A    between atoms: _489  and  _490
REMARK  201  A    between atoms: _489  and  _492
REMARK  202  A    between atoms: _492  and  _493
REMARK  203  A    between atoms: _496  and  _498
REMARK  204  A    between atoms: _498  and  _499
REMARK  205  A    between atoms: _498  and  _501
REMARK  206  A    between atoms: _501  and  _502
REMARK  207  A    between atoms: _505  and  _507
REMARK  208  A    between atoms: _507  and  _508
REMARK  209  A    between atoms: _510  and  _512
REMARK  210  A    between atoms: _512  and  _513
REMARK  211  A    between atoms: _512  and  _515
REMARK  212  A    between atoms: _515  and  _516
REMARK  213  A    between atoms: _516  and  _517
REMARK  214  A    between atoms: _517  and  _518
REMARK                            x       y       z     vdW  Elec       q    Type
REMARK                         _______ _______ _______ _____ _____    ______ ____
ROOT
ATOM      1  CG  LYS A   1     -38.148  64.626  43.128  0.00  0.00    -0.000 C 
ENDROOT
BRANCH   1   2
ATOM      2  CB  LYS A   1     -36.913  64.654  43.900  0.00  0.00    +0.025 C 
BRANCH   2   3
ATOM      3  CA  LYS A   1     -36.182  63.357  43.746  0.00  0.00    +0.133 C 
BRANCH   3   4
ATOM      4  N   LYS A   1     -34.943  63.417  44.430  0.00  0.00    -0.239 NA
ATOM      5  H   LYS A   1     -34.046  63.573  43.928  0.00  0.00    +0.142 HD
ENDBRANCH   3   4
BRANCH   3   6
ATOM      6  C   LYS A   1     -35.953  63.063  42.307  0.00  0.00    +0.224 C 
ATOM      7  O   LYS A   1     -34.852  63.285  41.784  0.00  0.00    -0.287 OA
ENDBRANCH   3   6
ENDBRANCH   2   3
ENDBRANCH   1   2
BRANCH   1   8
ATOM      8  CD  LYS A   1     -38.994  65.750  43.521  0.00  0.00    -0.024 C 
BRANCH   8   9
ATOM      9  CE  LYS A   1     -39.823  66.053  42.359  0.00  0.00    -0.086 C 
BRANCH   9  10
ATOM     10  NZ  LYS A   1     -41.011  66.879  42.726  0.00  0.00    +0.380 N 
ATOM     11  HZ1 LYS A   1     -41.592  66.361  43.416  0.00  0.00    -0.089 HD
ATOM     12  HZ2 LYS A   1     -40.692  67.777  43.143  0.00  0.00    -0.089 HD
ATOM     13  HZ3 LYS A   1     -41.574  67.072  41.873  0.00  0.00    -0.089 HD
ENDBRANCH   9  10
ENDBRANCH   8   9
ENDBRANCH   1   8
TORSDOF 7
REMARK  Name = ../refined-set-2016/2aqu/2aqu_pocket.pdb
REMARK  214 active torsions:
REMARK  status: ('A' for Active; 'I' for Inactive)
REMARK    1  A    between atoms: _1  and  _3
REMARK    2  A    between atoms: _3  and  _4
REMARK    3  A    between atoms: _3  and  _6
REMARK    4  A    between atoms: _6  and  _7
REMARK    5  A    between atoms: _7  and  _8
REMARK    6  A    between atoms: _8  and  _9
REMARK    7  A    between atoms: _18  and  _20
REMARK    8  A    between atoms: _20  and  _21
REMARK    9  A    between atoms: _20  and  _23
REMARK   10  A    between atoms: _23  and  _24
REMARK   11  A    between atoms: _27  and  _29
REMARK   12  A    between atoms: _29  and  _30
REMARK   13  A    between atoms: _29  and  _32
REMARK   14  A    between atoms: _32  and  _33
REMARK   15  A    between atoms: _36  and  _38
REMARK   16  A    between atoms: _38  and  _39
REMARK   17  A    between atoms: _38  and  _41
REMARK   18  A    between atoms: _41  and  _42
REMARK   19  A    between atoms: _45  and  _47
REMARK   20  A    between atoms: _47  and  _48
REMARK   21  A    between atoms: _47  and  _50
REMARK   22  A    between atoms: _50  and  _51
REMARK   23  A    between atoms: _54  and  _56
REMARK   24  A    between atoms: _56  and  _57
REMARK   25  A    between atoms: _59  and  _61
REMARK   26  A    between atoms: _61  and  _62
REMARK   27  A    between atoms: _65  and  _67
REMARK   28  A    between atoms: _67  and  _68
REMARK   29  A    between atoms: _67  and  _70
REMARK   30  A    between atoms: _70  and  _71
REMARK   31  A    between atoms: _74  and  _76
REMARK   32  A    between atoms: _76  and  _77
REMARK   33  A    between atoms: _76  and  _79
REMARK   34  A    between atoms: _79  and  _80
REMARK   35  A    between atoms: _83  and  _85
REMARK   36  A    between atoms: _85  and  _86
REMARK   37  A    between atoms: _85  and  _88
REMARK   38  A    between atoms: _88  and  _89
REMARK   39  A    between atoms: _92  and  _94
REMARK   40  A    between atoms: _94  and  _95
REMARK   41  A    between atoms: _94  and  _97
REMARK   42  A    between atoms: _100  and  _102
REMARK   43  A    between atoms: _102  and  _103
REMARK   44  A    between atoms: _102  and  _105
REMARK   45  A    between atoms: _105  and  _106
REMARK   46  A    between atoms: _106  and  _107
REMARK   47  A    between atoms: _107  and  _108
REMARK   48  A    between atoms: _108  and  _109
REMARK   49  A    between atoms: _113  and  _115
REMARK   50  A    between atoms: _115  and  _116
REMARK   51  A    between atoms: _115  and  _118
REMARK   52  A    between atoms: _118  and  _119
REMARK   53  A    between atoms: _122  and  _124
REMARK   54  A    between atoms: _124  and  _125
REMARK   55  A    between atoms: _127  and  _129
REMARK   56  A    between atoms: _129  and  _130
REMARK   57  A    between atoms: _132  and  _134
REMARK   58  A    between atoms: _134  and  _135
REMARK   59  A    between atoms: _134  and  _137
REMARK   60  A    between atoms: _137  and  _138
REMARK   61  A    between atoms: _141  and  _143
REMARK   62  A    between atoms: _143  and  _144
REMARK   63  A    between atoms: _146  and  _148
REMARK   64  A    between atoms: _148  and  _149
REMARK   65  A    between atoms: _151  and  _153
REMARK   66  A    between atoms: _153  and  _154
REMARK   67  A    between atoms: _153  and  _156
REMARK   68  A    between atoms: _156  and  _157
REMARK   69  A    between atoms: _163  and  _165
REMARK   70  A    between atoms: _165  and  _166
REMARK   71  A    between atoms: _165  and  _168
REMARK   72  A    between atoms: _168  and  _169
REMARK   73  A    between atoms: _172  and  _174
REMARK   74  A    between atoms: _174  and  _175
REMARK   75  A    between atoms: _174  and  _177
REMARK   76  A    between atoms: _177  and  _178
REMARK   77  A    between atoms: _182  and  _183
REMARK   78  A    between atoms: _188  and  _190
REMARK   79  A    between atoms: _190  and  _191
REMARK   80  A    between atoms: _190  and  _193
REMARK   81  A    between atoms: _193  and  _194
REMARK   82  A    between atoms: _198  and  _199
REMARK   83  A    between atoms: _204  and  _206
REMARK   84  A    between atoms: _206  and  _207
REMARK   85  A    between atoms: _206  and  _209
REMARK   86  A    between atoms: _212  and  _214
REMARK   87  A    between atoms: _214  and  _215
REMARK   88  A    between atoms: _214  and  _217
REMARK   89  A    between atoms: _217  and  _218
REMARK   90  A    between atoms: _223  and  _225
REMARK   91  A    between atoms: _225  and  _226
REMARK   92  A    between atoms: _225  and  _228
REMARK   93  A    between atoms: _228  and  _229
REMARK   94  A    between atoms: _232  and  _234
REMARK   95  A    between atoms: _234  and  _235
REMARK   96  A    between atoms: _234  and  _237
REMARK   97  A    between atoms: _237  and  _238
REMARK   98  A    between atoms: _241  and  _243
REMARK   99  A    between atoms: _243  and  _244
REMARK  100  A    between atoms: _246  and  _248
REMARK  101  A    between atoms: _248  and  _249
REMARK  102  A    between atoms: _248  and  _251
REMARK  103  A    between atoms: _251  and  _252
REMARK  104  A    between atoms: _252  and  _253
REMARK  105  A    between atoms: _253  and  _254
REMARK  106  A    between atoms: _263  and  _265
REMARK  107  A    between atoms: _265  and  _266
REMARK  108  A    between atoms: _265  and  _268
REMARK  109  A    between atoms: _268  and  _269
REMARK  110  A    between atoms: _269  and  _270
REMARK  111  A    between atoms: _270  and  _271
REMARK  112  A    between atoms: _280  and  _282
REMARK  113  A    between atoms: _282  and  _283
REMARK  114  A    between atoms: _282  and  _285
REMARK  115  A    between atoms: _285  and  _286
REMARK  116  A    between atoms: _289  and  _291
REMARK  117  A    between atoms: _291  and  _292
REMARK  118  A    between atoms: _291  and  _294
REMARK  119  A    between atoms: _294  and  _295
REMARK  120  A    between atoms: _298  and  _300
REMARK  121  A    between atoms: _300  and  _301
REMARK  122  A    between atoms: _300  and  _303
REMARK  123  A    between atoms: _303  and  _304
REMARK  124  A    between atoms: _307  and  _309
REMARK  125  A    between atoms: _309  and  _310
REMARK  126  A    between atoms: _309  and  _312
REMARK  127  A    between atoms: _312  and  _313
REMARK  128  A    between atoms: _316  and  _318
REMARK  129  A    between atoms: _318  and  _319
REMARK  130  A    between atoms: _321  and  _323
REMARK  131  A    between atoms: _323  and  _324
REMARK  132  A    between atoms: _327  and  _329
REMARK  133  A    between atoms: _329  and  _330
REMARK  134  A    between atoms: _329  and  _332
REMARK  135  A    between atoms: _332  and  _333
REMARK  136  A    between atoms: _336  and  _338
REMARK  137  A    between atoms: _338  and  _339
REMARK  138  A    between atoms: _338  and  _341
REMARK  139  A    between atoms: _341  and  _342
REMARK  140  A    between atoms: _345  and  _347
REMARK  141  A    between atoms: _347  and  _348
REMARK  142  A    between atoms: _347  and  _350
REMARK  143  A    between atoms: _350  and  _351
REMARK  144  A    between atoms: _354  and  _356
REMARK  145  A    between atoms: _356  and  _357
REMARK  146  A    between atoms: _356  and  _359
REMARK  147  A    between atoms: _362  and  _364
REMARK  148  A    between atoms: _364  and  _365
REMARK  149  A    between atoms: _364  and  _367
REMARK  150  A    between atoms: _367  and  _368
REMARK  151  A    between atoms: _368  and  _369
REMARK  152  A    between atoms: _369  and  _370
REMARK  153  A    between atoms: _370  and  _371
REMARK  154  A    between atoms: _375  and  _377
REMARK  155  A    between atoms: _377  and  _378
REMARK  156  A    between atoms: _377  and  _380
REMARK  157  A    between atoms: _380  and  _381
REMARK  158  A    between atoms: _381  and  _382
REMARK  159  A    between atoms: _384  and  _386
REMARK  160  A    between atoms: _386  and  _387
REMARK  161  A    between atoms: _386  and  _389
REMARK  162  A    between atoms: _389  and  _390
REMARK  163  A    between atoms: _393  and  _395
REMARK  164  A    between atoms: _395  and  _396
REMARK  165  A    between atoms: _398  and  _400
REMARK  166  A    between atoms: _400  and  _401
REMARK  167  A    between atoms: _403  and  _405
REMARK  168  A    between atoms: _405  and  _406
REMARK  169  A    between atoms: _405  and  _408
REMARK  170  A    between atoms: _408  and  _409
REMARK  171  A    between atoms: _412  and  _414
REMARK  172  A    between atoms: _414  and  _415
REMARK  173  A    between atoms: _417  and  _419
REMARK  174  A    between atoms: _419  and  _420
REMARK  175  A    between atoms: _422  and  _424
REMARK  176  A    between atoms: _424  and  _425
REMARK  177  A    between atoms: _424  and  _427
REMARK  178  A    between atoms: _427  and  _428
REMARK  179  A    between atoms: _434  and  _436
REMARK  180  A    between atoms: _436  and  _437
REMARK  181  A    between atoms: _436  and  _439
REMARK  182  A    between atoms: _439  and  _440
REMARK  183  A    between atoms: _443  and  _445
REMARK  184  A    between atoms: _445  and  _446
REMARK  185  A    between atoms: _445  and  _448
REMARK  186  A    between atoms: _448  and  _449
REMARK  187  A    between atoms: _452  and  _454
REMARK  188  A    between atoms: _454  and  _455
REMARK  189  A    between atoms: _454  and  _457
REMARK  190  A    between atoms: _457  and  _458
REMARK  191  A    between atoms: _462  and  _463
REMARK  192  A    between atoms: _468  and  _470
REMARK  193  A    between atoms: _470  and  _471
REMARK  194  A    between atoms: _470  and  _473
REMARK  195  A    between atoms: _476  and  _478
REMARK  196  A    between atoms: _478  and  _479
REMARK  197  A    between atoms: _478  and  _481
REMARK  198  A    between atoms: _481  and  _482
REMARK  199  A    between atoms: _487  and  _489
REMARK  200  A    between atoms: _489  and  _490
REMARK  201  A    between atoms: _489  and  _492
REMARK  202  A    between atoms: _492  and  _493
REMARK  203  A    between atoms: _496  and  _498
REMARK  204  A    between atoms: _498  and  _499
REMARK  205  A    between atoms: _498  and  _501
REMARK  206  A    between atoms: _501  and  _502
REMARK  207  A    between atoms: _505  and  _507
REMARK  208  A    between atoms: _507  and  _508
REMARK  209  A    between atoms: _510  and  _512
REMARK  210  A    between atoms: _512  and  _513
REMARK  211  A    between atoms: _512  and  _515
REMARK  212  A    between atoms: _515  and  _516
REMARK  213  A    between atoms: _516  and  _517
REMARK  214  A    between atoms: _517  and  _518
REMARK                            x       y       z     vdW  Elec       q    Type
REMARK                         _______ _______ _______ _____ _____    ______ ____
ROOT
ATOM      1  C   ILE A   4     -38.331  63.213  27.085  0.00  0.00    +0.241 C 
ATOM      2  O   ILE A   4     -37.308  63.905  27.192  0.00  0.00    -0.273 OA
ATOM      3  N   GLY A   5     -38.282  61.907  26.995  0.00  0.00    -0.295 N 
ATOM      4  H   GLY A   5     -39.151  61.337  26.948  0.00  0.00    +0.150 HD
ENDROOT
BRANCH   3   5
ATOM      5  CA  GLY A   5     -36.984  61.289  26.963  0.00  0.00    +0.176 C 
BRANCH   5   6
ATOM      6  C   GLY A   5     -36.813  60.422  28.178  0.00  0.00    +0.243 C 
ATOM      7  N   GLY A   6     -37.502  60.695  29.268  0.00  0.00    -0.295 N 
ATOM      8  H   GLY A   6     -38.154  61.505  29.302  0.00  0.00    +0.150 HD
ATOM      9  O   GLY A   5     -36.008  59.506  28.133  0.00  0.00    -0.273 OA
BRANCH   7  10
ATOM     10  CA  GLY A   6     -37.323  59.837  30.408  0.00  0.00    +0.176 C 
BRANCH  10  11
ATOM     11  C   GLY A   6     -37.332  60.638  31.670  0.00  0.00    +0.243 C 
ATOM     12  N   PHE A   7     -36.620  60.120  32.649  0.00  0.00    -0.297 N 
ATOM     13  H   PHE A   7     -36.069  59.257  32.464  0.00  0.00    +0.150 HD
ATOM     14  O   GLY A   6     -37.928  61.715  31.755  0.00  0.00    -0.273 OA
BRANCH  12  15
ATOM     15  CA  PHE A   7     -36.574  60.703  33.968  0.00  0.00    +0.153 C 
BRANCH  15  16
ATOM     16  C   PHE A   7     -35.176  61.138  34.399  0.00  0.00    +0.241 C 
ATOM     17  N   ILE A   8     -35.064  62.243  35.134  0.00  0.00    -0.298 N 
ATOM     18  H   ILE A   8     -35.899  62.826  35.345  0.00  0.00    +0.150 HD
ATOM     19  O   PHE A   7     -34.194  60.501  34.045  0.00  0.00    -0.273 OA
BRANCH  17  20
ATOM     20  CA  ILE A   8     -33.745  62.621  35.639  0.00  0.00    +0.137 C 
BRANCH  20  21
ATOM     21  CB  ILE A   8     -33.194  63.921  35.033  0.00  0.00    +0.026 C 
ATOM     22  CG2 ILE A   8     -32.945  63.687  33.548  0.00  0.00    +0.002 C 
BRANCH  21  23
ATOM     23  CG1 ILE A   8     -34.116  65.107  35.340  0.00  0.00    +0.002 C 
ATOM     24  CD1 ILE A   8     -33.353  66.418  35.551  0.00  0.00    +0.000 C 
ENDBRANCH  21  23
ENDBRANCH  20  21
BRANCH  20  25
ATOM     25  C   ILE A   8     -33.829  62.705  37.166  0.00  0.00    +0.227 C 
ATOM     26  O   ILE A   8     -34.914  62.921  37.754  0.00  0.00    -0.286 OA
ENDBRANCH  20  25
ENDBRANCH  17  20
ENDBRANCH  15  16
BRANCH  15  27
ATOM     27  CB  PHE A   7     -37.108  59.654  34.947  0.00  0.00    +0.055 C 
BRANCH  27  28
ATOM     28  CG  PHE A   7     -38.622  59.411  34.864  0.00  0.00    -0.020 A 
ATOM     29  CD2 PHE A   7     -39.443  59.845  35.914  0.00  0.00    -0.004 A 
ATOM     30  CE2 PHE A   7     -40.828  59.655  35.884  0.00  0.00    -0.000 A 
ATOM     31  CZ  PHE A   7     -41.411  59.032  34.803  0.00  0.00    -0.000 A 
ATOM     32  CE1 PHE A   7     -40.623  58.587  33.724  0.00  0.00    -0.000 A 
ATOM     33  CD1 PHE A   7     -39.229  58.765  33.760  0.00  0.00    -0.004 A 
ENDBRANCH  27  28
ENDBRANCH  15  27
ENDBRANCH  12  15
ENDBRANCH  10  11
ENDBRANCH   7  10
ENDBRANCH   5   6
ENDBRANCH   3   5
BRANCH   1  34
ATOM     34  CA  ILE A   4     -39.705  63.837  27.106  0.00  0.00    +0.149 C 
BRANCH  34  37
ATOM     35  C   GLY A   3     -39.961  63.972  29.432  0.00  0.00    +0.243 C 
ATOM     36  O   GLY A   3     -40.260  62.783  29.507  0.00  0.00    -0.273 OA
ATOM     37  N   ILE A   4     -39.686  64.599  28.305  0.00  0.00    -0.297 N 
ATOM     38  H   ILE A   4     -39.463  65.615  28.294  0.00  0.00    +0.150 HD
BRANCH  35  39
ATOM     39  CA  GLY A   3     -39.857  64.825  30.676  0.00  0.00    +0.176 C 
BRANCH  39  42
ATOM     40  C   GLY A   2     -40.269  64.238  32.968  0.00  0.00    +0.243 C 
ATOM     41  O   GLY A   2     -41.012  65.198  33.147  0.00  0.00    -0.273 OA
ATOM     42  N   GLY A   3     -39.680  63.955  31.818  0.00  0.00    -0.295 N 
ATOM     43  H   GLY A   3     -39.088  63.104  31.735  0.00  0.00    +0.150 HD
BRANCH  40  44
ATOM     44  CA  GLY A   2     -39.994  63.222  34.055  0.00  0.00    +0.176 C 
BRANCH  44  47
ATOM     45  C   ILE A   1     -38.832  63.581  36.123  0.00  0.00    +0.238 C 
ATOM     46  O   ILE A   1     -37.785  63.207  35.594  0.00  0.00    -0.274 OA
ATOM     47  N   GLY A   2     -39.957  63.690  35.436  0.00  0.00    -0.296 N 
ATOM     48  H   GLY A   2     -40.804  64.104  35.875  0.00  0.00    +0.150 HD
BRANCH  45  49
ATOM     49  CA  ILE A   1     -38.879  64.030  37.576  0.00  0.00    +0.145 C 
BRANCH  49  50
ATOM     50  N   ILE A   1     -37.817  63.372  38.316  0.00  0.00    -0.238 NA
ATOM     51  H   ILE A   1     -36.871  63.288  37.891  0.00  0.00    +0.142 HD
ENDBRANCH  49  50
BRANCH  49  52
ATOM     52  CB  ILE A   1     -38.742  65.569  37.654  0.00  0.00    +0.025 C 
ATOM     53  CG2 ILE A   1     -38.914  66.052  39.092  0.00  0.00    +0.002 C 
BRANCH  52  54
ATOM     54  CG1 ILE A   1     -37.378  65.992  37.110  0.00  0.00    +0.002 C 
ATOM     55  CD1 ILE A   1     -37.095  67.472  37.195  0.00  0.00    +0.000 C 
ENDBRANCH  52  54
ENDBRANCH  49  52
ENDBRANCH  45  49
ENDBRANCH  44  47
ENDBRANCH  40  44
ENDBRANCH  39  42
ENDBRANCH  35  39
ENDBRANCH  34  37
BRANCH  34  56
ATOM     56  CB  ILE A   4     -39.905  64.717  25.904  0.00  0.00    +0.027 C 
ATOM     57  CG2 ILE A   4     -38.636  64.814  25.062  0.00  0.00    +0.002 C 
BRANCH  56  58
ATOM     58  CG1 ILE A   4     -40.979  64.092  25.036  0.00  0.00    +0.002 C 
ATOM     59  CD1 ILE A   4     -42.021  65.077  24.560  0.00  0.00    +0.000 C 
ENDBRANCH  56  58
ENDBRANCH  34  56
ENDBRANCH   1  34
TORSDOF 24
REMARK  Name = ../refined-set-2016/2aqu/2aqu_pocket.pdb
REMARK  214 active torsions:
REMARK  status: ('A' for Active; 'I' for Inactive)
REMARK    1  A    between atoms: _1  and  _3
REMARK    2  A    between atoms: _3  and  _4
REMARK    3  A    between atoms: _3  and  _6
REMARK    4  A    between atoms: _6  and  _7
REMARK    5  A    between atoms: _7  and  _8
REMARK    6  A    between atoms: _8  and  _9
REMARK    7  A    between atoms: _18  and  _20
REMARK    8  A    between atoms: _20  and  _21
REMARK    9  A    between atoms: _20  and  _23
REMARK   10  A    between atoms: _23  and  _24
REMARK   11  A    between atoms: _27  and  _29
REMARK   12  A    between atoms: _29  and  _30
REMARK   13  A    between atoms: _29  and  _32
REMARK   14  A    between atoms: _32  and  _33
REMARK   15  A    between atoms: _36  and  _38
REMARK   16  A    between atoms: _38  and  _39
REMARK   17  A    between atoms: _38  and  _41
REMARK   18  A    between atoms: _41  and  _42
REMARK   19  A    between atoms: _45  and  _47
REMARK   20  A    between atoms: _47  and  _48
REMARK   21  A    between atoms: _47  and  _50
REMARK   22  A    between atoms: _50  and  _51
REMARK   23  A    between atoms: _54  and  _56
REMARK   24  A    between atoms: _56  and  _57
REMARK   25  A    between atoms: _59  and  _61
REMARK   26  A    between atoms: _61  and  _62
REMARK   27  A    between atoms: _65  and  _67
REMARK   28  A    between atoms: _67  and  _68
REMARK   29  A    between atoms: _67  and  _70
REMARK   30  A    between atoms: _70  and  _71
REMARK   31  A    between atoms: _74  and  _76
REMARK   32  A    between atoms: _76  and  _77
REMARK   33  A    between atoms: _76  and  _79
REMARK   34  A    between atoms: _79  and  _80
REMARK   35  A    between atoms: _83  and  _85
REMARK   36  A    between atoms: _85  and  _86
REMARK   37  A    between atoms: _85  and  _88
REMARK   38  A    between atoms: _88  and  _89
REMARK   39  A    between atoms: _92  and  _94
REMARK   40  A    between atoms: _94  and  _95
REMARK   41  A    between atoms: _94  and  _97
REMARK   42  A    between atoms: _100  and  _102
REMARK   43  A    between atoms: _102  and  _103
REMARK   44  A    between atoms: _102  and  _105
REMARK   45  A    between atoms: _105  and  _106
REMARK   46  A    between atoms: _106  and  _107
REMARK   47  A    between atoms: _107  and  _108
REMARK   48  A    between atoms: _108  and  _109
REMARK   49  A    between atoms: _113  and  _115
REMARK   50  A    between atoms: _115  and  _116
REMARK   51  A    between atoms: _115  and  _118
REMARK   52  A    between atoms: _118  and  _119
REMARK   53  A    between atoms: _122  and  _124
REMARK   54  A    between atoms: _124  and  _125
REMARK   55  A    between atoms: _127  and  _129
REMARK   56  A    between atoms: _129  and  _130
REMARK   57  A    between atoms: _132  and  _134
REMARK   58  A    between atoms: _134  and  _135
REMARK   59  A    between atoms: _134  and  _137
REMARK   60  A    between atoms: _137  and  _138
REMARK   61  A    between atoms: _141  and  _143
REMARK   62  A    between atoms: _143  and  _144
REMARK   63  A    between atoms: _146  and  _148
REMARK   64  A    between atoms: _148  and  _149
REMARK   65  A    between atoms: _151  and  _153
REMARK   66  A    between atoms: _153  and  _154
REMARK   67  A    between atoms: _153  and  _156
REMARK   68  A    between atoms: _156  and  _157
REMARK   69  A    between atoms: _163  and  _165
REMARK   70  A    between atoms: _165  and  _166
REMARK   71  A    between atoms: _165  and  _168
REMARK   72  A    between atoms: _168  and  _169
REMARK   73  A    between atoms: _172  and  _174
REMARK   74  A    between atoms: _174  and  _175
REMARK   75  A    between atoms: _174  and  _177
REMARK   76  A    between atoms: _177  and  _178
REMARK   77  A    between atoms: _182  and  _183
REMARK   78  A    between atoms: _188  and  _190
REMARK   79  A    between atoms: _190  and  _191
REMARK   80  A    between atoms: _190  and  _193
REMARK   81  A    between atoms: _193  and  _194
REMARK   82  A    between atoms: _198  and  _199
REMARK   83  A    between atoms: _204  and  _206
REMARK   84  A    between atoms: _206  and  _207
REMARK   85  A    between atoms: _206  and  _209
REMARK   86  A    between atoms: _212  and  _214
REMARK   87  A    between atoms: _214  and  _215
REMARK   88  A    between atoms: _214  and  _217
REMARK   89  A    between atoms: _217  and  _218
REMARK   90  A    between atoms: _223  and  _225
REMARK   91  A    between atoms: _225  and  _226
REMARK   92  A    between atoms: _225  and  _228
REMARK   93  A    between atoms: _228  and  _229
REMARK   94  A    between atoms: _232  and  _234
REMARK   95  A    between atoms: _234  and  _235
REMARK   96  A    between atoms: _234  and  _237
REMARK   97  A    between atoms: _237  and  _238
REMARK   98  A    between atoms: _241  and  _243
REMARK   99  A    between atoms: _243  and  _244
REMARK  100  A    between atoms: _246  and  _248
REMARK  101  A    between atoms: _248  and  _249
REMARK  102  A    between atoms: _248  and  _251
REMARK  103  A    between atoms: _251  and  _252
REMARK  104  A    between atoms: _252  and  _253
REMARK  105  A    between atoms: _253  and  _254
REMARK  106  A    between atoms: _263  and  _265
REMARK  107  A    between atoms: _265  and  _266
REMARK  108  A    between atoms: _265  and  _268
REMARK  109  A    between atoms: _268  and  _269
REMARK  110  A    between atoms: _269  and  _270
REMARK  111  A    between atoms: _270  and  _271
REMARK  112  A    between atoms: _280  and  _282
REMARK  113  A    between atoms: _282  and  _283
REMARK  114  A    between atoms: _282  and  _285
REMARK  115  A    between atoms: _285  and  _286
REMARK  116  A    between atoms: _289  and  _291
REMARK  117  A    between atoms: _291  and  _292
REMARK  118  A    between atoms: _291  and  _294
REMARK  119  A    between atoms: _294  and  _295
REMARK  120  A    between atoms: _298  and  _300
REMARK  121  A    between atoms: _300  and  _301
REMARK  122  A    between atoms: _300  and  _303
REMARK  123  A    between atoms: _303  and  _304
REMARK  124  A    between atoms: _307  and  _309
REMARK  125  A    between atoms: _309  and  _310
REMARK  126  A    between atoms: _309  and  _312
REMARK  127  A    between atoms: _312  and  _313
REMARK  128  A    between atoms: _316  and  _318
REMARK  129  A    between atoms: _318  and  _319
REMARK  130  A    between atoms: _321  and  _323
REMARK  131  A    between atoms: _323  and  _324
REMARK  132  A    between atoms: _327  and  _329
REMARK  133  A    between atoms: _329  and  _330
REMARK  134  A    between atoms: _329  and  _332
REMARK  135  A    between atoms: _332  and  _333
REMARK  136  A    between atoms: _336  and  _338
REMARK  137  A    between atoms: _338  and  _339
REMARK  138  A    between atoms: _338  and  _341
REMARK  139  A    between atoms: _341  and  _342
REMARK  140  A    between atoms: _345  and  _347
REMARK  141  A    between atoms: _347  and  _348
REMARK  142  A    between atoms: _347  and  _350
REMARK  143  A    between atoms: _350  and  _351
REMARK  144  A    between atoms: _354  and  _356
REMARK  145  A    between atoms: _356  and  _357
REMARK  146  A    between atoms: _356  and  _359
REMARK  147  A    between atoms: _362  and  _364
REMARK  148  A    between atoms: _364  and  _365
REMARK  149  A    between atoms: _364  and  _367
REMARK  150  A    between atoms: _367  and  _368
REMARK  151  A    between atoms: _368  and  _369
REMARK  152  A    between atoms: _369  and  _370
REMARK  153  A    between atoms: _370  and  _371
REMARK  154  A    between atoms: _375  and  _377
REMARK  155  A    between atoms: _377  and  _378
REMARK  156  A    between atoms: _377  and  _380
REMARK  157  A    between atoms: _380  and  _381
REMARK  158  A    between atoms: _381  and  _382
REMARK  159  A    between atoms: _384  and  _386
REMARK  160  A    between atoms: _386  and  _387
REMARK  161  A    between atoms: _386  and  _389
REMARK  162  A    between atoms: _389  and  _390
REMARK  163  A    between atoms: _393  and  _395
REMARK  164  A    between atoms: _395  and  _396
REMARK  165  A    between atoms: _398  and  _400
REMARK  166  A    between atoms: _400  and  _401
REMARK  167  A    between atoms: _403  and  _405
REMARK  168  A    between atoms: _405  and  _406
REMARK  169  A    between atoms: _405  and  _408
REMARK  170  A    between atoms: _408  and  _409
REMARK  171  A    between atoms: _412  and  _414
REMARK  172  A    between atoms: _414  and  _415
REMARK  173  A    between atoms: _417  and  _419
REMARK  174  A    between atoms: _419  and  _420
REMARK  175  A    between atoms: _422  and  _424
REMARK  176  A    between atoms: _424  and  _425
REMARK  177  A    between atoms: _424  and  _427
REMARK  178  A    between atoms: _427  and  _428
REMARK  179  A    between atoms: _434  and  _436
REMARK  180  A    between atoms: _436  and  _437
REMARK  181  A    between atoms: _436  and  _439
REMARK  182  A    between atoms: _439  and  _440
REMARK  183  A    between atoms: _443  and  _445
REMARK  184  A    between atoms: _445  and  _446
REMARK  185  A    between atoms: _445  and  _448
REMARK  186  A    between atoms: _448  and  _449
REMARK  187  A    between atoms: _452  and  _454
REMARK  188  A    between atoms: _454  and  _455
REMARK  189  A    between atoms: _454  and  _457
REMARK  190  A    between atoms: _457  and  _458
REMARK  191  A    between atoms: _462  and  _463
REMARK  192  A    between atoms: _468  and  _470
REMARK  193  A    between atoms: _470  and  _471
REMARK  194  A    between atoms: _470  and  _473
REMARK  195  A    between atoms: _476  and  _478
REMARK  196  A    between atoms: _478  and  _479
REMARK  197  A    between atoms: _478  and  _481
REMARK  198  A    between atoms: _481  and  _482
REMARK  199  A    between atoms: _487  and  _489
REMARK  200  A    between atoms: _489  and  _490
REMARK  201  A    between atoms: _489  and  _492
REMARK  202  A    between atoms: _492  and  _493
REMARK  203  A    between atoms: _496  and  _498
REMARK  204  A    between atoms: _498  and  _499
REMARK  205  A    between atoms: _498  and  _501
REMARK  206  A    between atoms: _501  and  _502
REMARK  207  A    between atoms: _505  and  _507
REMARK  208  A    between atoms: _507  and  _508
REMARK  209  A    between atoms: _510  and  _512
REMARK  210  A    between atoms: _512  and  _513
REMARK  211  A    between atoms: _512  and  _515
REMARK  212  A    between atoms: _515  and  _516
REMARK  213  A    between atoms: _516  and  _517
REMARK  214  A    between atoms: _517  and  _518
REMARK                            x       y       z     vdW  Elec       q    Type
REMARK                         _______ _______ _______ _____ _____    ______ ____
ROOT
ATOM      1  CA  LEU A   1     -34.775  71.457  41.658  0.00  0.00    +0.133 C 
ENDROOT
BRANCH   1   2
ATOM      2  N   LEU A   1     -35.427  72.710  41.927  0.00  0.00    -0.239 NA
ATOM      3  H   LEU A   1     -35.877  73.207  41.132  0.00  0.00    +0.142 HD
ENDBRANCH   1   2
BRANCH   1   4
ATOM      4  C   LEU A   1     -33.497  71.708  40.930  0.00  0.00    +0.224 C 
ATOM      5  O   LEU A   1     -33.458  72.562  40.061  0.00  0.00    -0.287 OA
ENDBRANCH   1   4
BRANCH   1   6
ATOM      6  CB  LEU A   1     -35.670  70.573  40.760  0.00  0.00    +0.025 C 
BRANCH   6   7
ATOM      7  CG  LEU A   1     -37.074  70.179  41.238  0.00  0.00    +0.002 C 
ATOM      8  CD2 LEU A   1     -37.873  71.429  41.509  0.00  0.00    +0.000 C 
ATOM      9  CD1 LEU A   1     -37.801  69.164  40.386  0.00  0.00    +0.000 C 
ENDBRANCH   6   7
ENDBRANCH   1   6
TORSDOF 4
REMARK  Name = ../refined-set-2016/2aqu/2aqu_pocket.pdb
REMARK  214 active torsions:
REMARK  status: ('A' for Active; 'I' for Inactive)
REMARK    1  A    between atoms: _1  and  _3
REMARK    2  A    between atoms: _3  and  _4
REMARK    3  A    between atoms: _3  and  _6
REMARK    4  A    between atoms: _6  and  _7
REMARK    5  A    between atoms: _7  and  _8
REMARK    6  A    between atoms: _8  and  _9
REMARK    7  A    between atoms: _18  and  _20
REMARK    8  A    between atoms: _20  and  _21
REMARK    9  A    between atoms: _20  and  _23
REMARK   10  A    between atoms: _23  and  _24
REMARK   11  A    between atoms: _27  and  _29
REMARK   12  A    between atoms: _29  and  _30
REMARK   13  A    between atoms: _29  and  _32
REMARK   14  A    between atoms: _32  and  _33
REMARK   15  A    between atoms: _36  and  _38
REMARK   16  A    between atoms: _38  and  _39
REMARK   17  A    between atoms: _38  and  _41
REMARK   18  A    between atoms: _41  and  _42
REMARK   19  A    between atoms: _45  and  _47
REMARK   20  A    between atoms: _47  and  _48
REMARK   21  A    between atoms: _47  and  _50
REMARK   22  A    between atoms: _50  and  _51
REMARK   23  A    between atoms: _54  and  _56
REMARK   24  A    between atoms: _56  and  _57
REMARK   25  A    between atoms: _59  and  _61
REMARK   26  A    between atoms: _61  and  _62
REMARK   27  A    between atoms: _65  and  _67
REMARK   28  A    between atoms: _67  and  _68
REMARK   29  A    between atoms: _67  and  _70
REMARK   30  A    between atoms: _70  and  _71
REMARK   31  A    between atoms: _74  and  _76
REMARK   32  A    between atoms: _76  and  _77
REMARK   33  A    between atoms: _76  and  _79
REMARK   34  A    between atoms: _79  and  _80
REMARK   35  A    between atoms: _83  and  _85
REMARK   36  A    between atoms: _85  and  _86
REMARK   37  A    between atoms: _85  and  _88
REMARK   38  A    between atoms: _88  and  _89
REMARK   39  A    between atoms: _92  and  _94
REMARK   40  A    between atoms: _94  and  _95
REMARK   41  A    between atoms: _94  and  _97
REMARK   42  A    between atoms: _100  and  _102
REMARK   43  A    between atoms: _102  and  _103
REMARK   44  A    between atoms: _102  and  _105
REMARK   45  A    between atoms: _105  and  _106
REMARK   46  A    between atoms: _106  and  _107
REMARK   47  A    between atoms: _107  and  _108
REMARK   48  A    between atoms: _108  and  _109
REMARK   49  A    between atoms: _113  and  _115
REMARK   50  A    between atoms: _115  and  _116
REMARK   51  A    between atoms: _115  and  _118
REMARK   52  A    between atoms: _118  and  _119
REMARK   53  A    between atoms: _122  and  _124
REMARK   54  A    between atoms: _124  and  _125
REMARK   55  A    between atoms: _127  and  _129
REMARK   56  A    between atoms: _129  and  _130
REMARK   57  A    between atoms: _132  and  _134
REMARK   58  A    between atoms: _134  and  _135
REMARK   59  A    between atoms: _134  and  _137
REMARK   60  A    between atoms: _137  and  _138
REMARK   61  A    between atoms: _141  and  _143
REMARK   62  A    between atoms: _143  and  _144
REMARK   63  A    between atoms: _146  and  _148
REMARK   64  A    between atoms: _148  and  _149
REMARK   65  A    between atoms: _151  and  _153
REMARK   66  A    between atoms: _153  and  _154
REMARK   67  A    between atoms: _153  and  _156
REMARK   68  A    between atoms: _156  and  _157
REMARK   69  A    between atoms: _163  and  _165
REMARK   70  A    between atoms: _165  and  _166
REMARK   71  A    between atoms: _165  and  _168
REMARK   72  A    between atoms: _168  and  _169
REMARK   73  A    between atoms: _172  and  _174
REMARK   74  A    between atoms: _174  and  _175
REMARK   75  A    between atoms: _174  and  _177
REMARK   76  A    between atoms: _177  and  _178
REMARK   77  A    between atoms: _182  and  _183
REMARK   78  A    between atoms: _188  and  _190
REMARK   79  A    between atoms: _190  and  _191
REMARK   80  A    between atoms: _190  and  _193
REMARK   81  A    between atoms: _193  and  _194
REMARK   82  A    between atoms: _198  and  _199
REMARK   83  A    between atoms: _204  and  _206
REMARK   84  A    between atoms: _206  and  _207
REMARK   85  A    between atoms: _206  and  _209
REMARK   86  A    between atoms: _212  and  _214
REMARK   87  A    between atoms: _214  and  _215
REMARK   88  A    between atoms: _214  and  _217
REMARK   89  A    between atoms: _217  and  _218
REMARK   90  A    between atoms: _223  and  _225
REMARK   91  A    between atoms: _225  and  _226
REMARK   92  A    between atoms: _225  and  _228
REMARK   93  A    between atoms: _228  and  _229
REMARK   94  A    between atoms: _232  and  _234
REMARK   95  A    between atoms: _234  and  _235
REMARK   96  A    between atoms: _234  and  _237
REMARK   97  A    between atoms: _237  and  _238
REMARK   98  A    between atoms: _241  and  _243
REMARK   99  A    between atoms: _243  and  _244
REMARK  100  A    between atoms: _246  and  _248
REMARK  101  A    between atoms: _248  and  _249
REMARK  102  A    between atoms: _248  and  _251
REMARK  103  A    between atoms: _251  and  _252
REMARK  104  A    between atoms: _252  and  _253
REMARK  105  A    between atoms: _253  and  _254
REMARK  106  A    between atoms: _263  and  _265
REMARK  107  A    between atoms: _265  and  _266
REMARK  108  A    between atoms: _265  and  _268
REMARK  109  A    between atoms: _268  and  _269
REMARK  110  A    between atoms: _269  and  _270
REMARK  111  A    between atoms: _270  and  _271
REMARK  112  A    between atoms: _280  and  _282
REMARK  113  A    between atoms: _282  and  _283
REMARK  114  A    between atoms: _282  and  _285
REMARK  115  A    between atoms: _285  and  _286
REMARK  116  A    between atoms: _289  and  _291
REMARK  117  A    between atoms: _291  and  _292
REMARK  118  A    between atoms: _291  and  _294
REMARK  119  A    between atoms: _294  and  _295
REMARK  120  A    between atoms: _298  and  _300
REMARK  121  A    between atoms: _300  and  _301
REMARK  122  A    between atoms: _300  and  _303
REMARK  123  A    between atoms: _303  and  _304
REMARK  124  A    between atoms: _307  and  _309
REMARK  125  A    between atoms: _309  and  _310
REMARK  126  A    between atoms: _309  and  _312
REMARK  127  A    between atoms: _312  and  _313
REMARK  128  A    between atoms: _316  and  _318
REMARK  129  A    between atoms: _318  and  _319
REMARK  130  A    between atoms: _321  and  _323
REMARK  131  A    between atoms: _323  and  _324
REMARK  132  A    between atoms: _327  and  _329
REMARK  133  A    between atoms: _329  and  _330
REMARK  134  A    between atoms: _329  and  _332
REMARK  135  A    between atoms: _332  and  _333
REMARK  136  A    between atoms: _336  and  _338
REMARK  137  A    between atoms: _338  and  _339
REMARK  138  A    between atoms: _338  and  _341
REMARK  139  A    between atoms: _341  and  _342
REMARK  140  A    between atoms: _345  and  _347
REMARK  141  A    between atoms: _347  and  _348
REMARK  142  A    between atoms: _347  and  _350
REMARK  143  A    between atoms: _350  and  _351
REMARK  144  A    between atoms: _354  and  _356
REMARK  145  A    between atoms: _356  and  _357
REMARK  146  A    between atoms: _356  and  _359
REMARK  147  A    between atoms: _362  and  _364
REMARK  148  A    between atoms: _364  and  _365
REMARK  149  A    between atoms: _364  and  _367
REMARK  150  A    between atoms: _367  and  _368
REMARK  151  A    between atoms: _368  and  _369
REMARK  152  A    between atoms: _369  and  _370
REMARK  153  A    between atoms: _370  and  _371
REMARK  154  A    between atoms: _375  and  _377
REMARK  155  A    between atoms: _377  and  _378
REMARK  156  A    between atoms: _377  and  _380
REMARK  157  A    between atoms: _380  and  _381
REMARK  158  A    between atoms: _381  and  _382
REMARK  159  A    between atoms: _384  and  _386
REMARK  160  A    between atoms: _386  and  _387
REMARK  161  A    between atoms: _386  and  _389
REMARK  162  A    between atoms: _389  and  _390
REMARK  163  A    between atoms: _393  and  _395
REMARK  164  A    between atoms: _395  and  _396
REMARK  165  A    between atoms: _398  and  _400
REMARK  166  A    between atoms: _400  and  _401
REMARK  167  A    between atoms: _403  and  _405
REMARK  168  A    between atoms: _405  and  _406
REMARK  169  A    between atoms: _405  and  _408
REMARK  170  A    between atoms: _408  and  _409
REMARK  171  A    between atoms: _412  and  _414
REMARK  172  A    between atoms: _414  and  _415
REMARK  173  A    between atoms: _417  and  _419
REMARK  174  A    between atoms: _419  and  _420
REMARK  175  A    between atoms: _422  and  _424
REMARK  176  A    between atoms: _424  and  _425
REMARK  177  A    between atoms: _424  and  _427
REMARK  178  A    between atoms: _427  and  _428
REMARK  179  A    between atoms: _434  and  _436
REMARK  180  A    between atoms: _436  and  _437
REMARK  181  A    between atoms: _436  and  _439
REMARK  182  A    between atoms: _439  and  _440
REMARK  183  A    between atoms: _443  and  _445
REMARK  184  A    between atoms: _445  and  _446
REMARK  185  A    between atoms: _445  and  _448
REMARK  186  A    between atoms: _448  and  _449
REMARK  187  A    between atoms: _452  and  _454
REMARK  188  A    between atoms: _454  and  _455
REMARK  189  A    between atoms: _454  and  _457
REMARK  190  A    between atoms: _457  and  _458
REMARK  191  A    between atoms: _462  and  _463
REMARK  192  A    between atoms: _468  and  _470
REMARK  193  A    between atoms: _470  and  _471
REMARK  194  A    between atoms: _470  and  _473
REMARK  195  A    between atoms: _476  and  _478
REMARK  196  A    between atoms: _478  and  _479
REMARK  197  A    between atoms: _478  and  _481
REMARK  198  A    between atoms: _481  and  _482
REMARK  199  A    between atoms: _487  and  _489
REMARK  200  A    between atoms: _489  and  _490
REMARK  201  A    between atoms: _489  and  _492
REMARK  202  A    between atoms: _492  and  _493
REMARK  203  A    between atoms: _496  and  _498
REMARK  204  A    between atoms: _498  and  _499
REMARK  205  A    between atoms: _498  and  _501
REMARK  206  A    between atoms: _501  and  _502
REMARK  207  A    between atoms: _505  and  _507
REMARK  208  A    between atoms: _507  and  _508
REMARK  209  A    between atoms: _510  and  _512
REMARK  210  A    between atoms: _512  and  _513
REMARK  211  A    between atoms: _512  and  _515
REMARK  212  A    between atoms: _515  and  _516
REMARK  213  A    between atoms: _516  and  _517
REMARK  214  A    between atoms: _517  and  _518
REMARK                            x       y       z     vdW  Elec       q    Type
REMARK                         _______ _______ _______ _____ _____    ______ ____
ROOT
ATOM      1  C   ASN A   5     -34.062  76.469  32.961  0.00  0.00    +0.241 C 
ATOM      2  N   ILE A   6     -34.951  75.930  33.785  0.00  0.00    -0.297 N 
ATOM      3  H   ILE A   6     -34.615  75.410  34.621  0.00  0.00    +0.150 HD
ATOM      4  O   ASN A   5     -34.394  77.149  31.993  0.00  0.00    -0.273 OA
ENDROOT
BRANCH   1   5
ATOM      5  CA  ASN A   5     -32.585  76.220  33.272  0.00  0.00    +0.158 C 
BRANCH   5   8
ATOM      6  C   VAL A   4     -32.162  74.588  31.550  0.00  0.00    +0.241 C 
ATOM      7  O   VAL A   4     -32.886  73.785  32.115  0.00  0.00    -0.273 OA
ATOM      8  N   ASN A   5     -31.934  75.793  32.039  0.00  0.00    -0.297 N 
ATOM      9  H   ASN A   5     -31.288  76.440  31.543  0.00  0.00    +0.150 HD
BRANCH   6  10
ATOM     10  CA  VAL A   4     -31.472  74.206  30.257  0.00  0.00    +0.149 C 
BRANCH  10  12
ATOM     11  C   PRO A   3     -30.230  72.293  29.508  0.00  0.00    +0.241 C 
ATOM     12  N   VAL A   4     -31.220  72.776  30.251  0.00  0.00    -0.297 N 
ATOM     13  H   VAL A   4     -31.808  72.136  30.822  0.00  0.00    +0.150 HD
ATOM     14  O   PRO A   3     -29.481  73.020  28.868  0.00  0.00    -0.273 OA
BRANCH  11  21
ATOM     15  C   THR A   2     -30.408  70.215  31.802  0.00  0.00    +0.246 C 
ATOM     16  O   THR A   2     -29.415  70.863  32.108  0.00  0.00    -0.273 OA
ATOM     17  N   PRO A   3     -30.822  70.130  30.552  0.00  0.00    -0.272 N 
ATOM     18  CD  PRO A   3     -31.903  69.275  30.032  0.00  0.00    +0.094 C 
ATOM     19  CG  PRO A   3     -31.399  68.959  28.665  0.00  0.00    +0.024 C 
ATOM     20  CB  PRO A   3     -30.737  70.209  28.206  0.00  0.00    +0.031 C 
ATOM     21  CA  PRO A   3     -30.079  70.770  29.467  0.00  0.00    +0.152 C 
BRANCH  15  22
ATOM     22  CA  THR A   2     -31.258  69.520  32.880  0.00  0.00    +0.176 C 
BRANCH  22  24
ATOM     23  C   PRO A   1     -29.715  67.857  33.661  0.00  0.00    +0.239 C 
ATOM     24  N   THR A   2     -30.414  68.954  33.901  0.00  0.00    -0.295 N 
ATOM     25  H   THR A   2     -30.354  69.411  34.833  0.00  0.00    +0.150 HD
ATOM     26  O   PRO A   1     -29.735  67.258  32.568  0.00  0.00    -0.274 OA
BRANCH  23  31
ATOM     27  N   PRO A   1     -29.200  67.502  36.192  0.00  0.00    -0.210 NA
ATOM     28  CD  PRO A   1     -29.651  66.198  36.722  0.00  0.00    +0.089 C 
ATOM     29  CG  PRO A   1     -29.718  65.341  35.436  0.00  0.00    +0.021 C 
ATOM     30  CB  PRO A   1     -28.570  65.868  34.671  0.00  0.00    +0.028 C 
ATOM     31  CA  PRO A   1     -28.841  67.366  34.792  0.00  0.00    +0.149 C 
ENDBRANCH  23  31
ENDBRANCH  22  24
BRANCH  22  32
ATOM     32  CB  THR A   2     -32.215  70.523  33.484  0.00  0.00    +0.137 C 
ATOM     33  CG2 THR A   2     -31.451  71.625  34.248  0.00  0.00    +0.034 C 
BRANCH  32  34
ATOM     34  OG1 THR A   2     -32.960  71.105  32.423  0.00  0.00    -0.382 OA
ATOM     35  HG1 THR A   2     -33.596  71.768  32.793  0.00  0.00    +0.210 HD
ENDBRANCH  32  34
ENDBRANCH  22  32
ENDBRANCH  15  22
ENDBRANCH  11  21
ENDBRANCH  10  12
BRANCH  10  36
ATOM     36  CB  VAL A   4     -32.377  74.543  29.059  0.00  0.00    +0.027 C 
ATOM     37  CG2 VAL A   4     -33.667  73.695  29.145  0.00  0.00    +0.002 C 
ATOM     38  CG1 VAL A   4     -32.707  76.034  29.032  0.00  0.00    +0.002 C 
ENDBRANCH  10  36
ENDBRANCH   6  10
ENDBRANCH   5   8
BRANCH   5  39
ATOM     39  CB  ASN A   5     -31.926  77.480  33.800  0.00  0.00    +0.114 C 
BRANCH  39  40
ATOM     40  CG  ASN A   5     -30.431  77.270  34.159  0.00  0.00    +0.222 C 
ATOM     41  OD1 ASN A   5     -30.049  76.245  34.718  0.00  0.00    -0.275 OA
ATOM     42  ND2 ASN A   5     -29.601  78.254  33.853  0.00  0.00    -0.329 N 
ATOM     43 HD21 ASN A   5     -28.591  78.173  34.086  0.00  0.00    +0.145 HD
ATOM     44 HD22 ASN A   5     -29.959  79.108  33.380  0.00  0.00    +0.145 HD
ENDBRANCH  39  40
ENDBRANCH   5  39
ENDBRANCH   1   5
BRANCH   2  45
ATOM     45  CA  ILE A   6     -36.380  76.046  33.553  0.00  0.00    +0.149 C 
BRANCH  45  46
ATOM     46  C   ILE A   6     -37.167  76.659  34.699  0.00  0.00    +0.241 C 
ATOM     47  O   ILE A   6     -37.051  76.230  35.855  0.00  0.00    -0.273 OA
ATOM     48  N   ILE A   7     -37.961  77.685  34.425  0.00  0.00    -0.297 N 
ATOM     49  H   ILE A   7     -37.985  78.077  33.462  0.00  0.00    +0.150 HD
BRANCH  48  50
ATOM     50  CA  ILE A   7     -38.808  78.272  35.473  0.00  0.00    +0.149 C 
BRANCH  50  51
ATOM     51  C   ILE A   7     -40.210  77.701  35.245  0.00  0.00    +0.241 C 
ATOM     52  N   GLY A   8     -40.651  76.889  36.194  0.00  0.00    -0.295 N 
ATOM     53  H   GLY A   8     -40.054  76.722  37.029  0.00  0.00    +0.150 HD
ATOM     54  O   ILE A   7     -40.837  77.998  34.216  0.00  0.00    -0.273 OA
BRANCH  52  55
ATOM     55  CA  GLY A   8     -41.955  76.215  36.108  0.00  0.00    +0.176 C 
BRANCH  55  56
ATOM     56  C   GLY A   8     -43.154  76.925  36.722  0.00  0.00    +0.243 C 
ATOM     57  O   GLY A   8     -43.018  78.019  37.296  0.00  0.00    -0.273 OA
ATOM     58  N   ARG A   9     -44.330  76.318  36.581  0.00  0.00    -0.298 N 
ATOM     59  H   ARG A   9     -44.375  75.396  36.103  0.00  0.00    +0.150 HD
BRANCH  58  60
ATOM     60  CA  ARG A   9     -45.558  76.926  37.087  0.00  0.00    +0.137 C 
BRANCH  60  61
ATOM     61  C   ARG A   9     -45.510  77.277  38.584  0.00  0.00    +0.227 C 
ATOM     62  O   ARG A   9     -46.028  78.312  39.008  0.00  0.00    -0.286 OA
ENDBRANCH  60  61
BRANCH  60  63
ATOM     63  CB  ARG A   9     -46.790  76.031  36.744  0.00  0.00    +0.031 C 
BRANCH  63  64
ATOM     64  CG  ARG A   9     -47.121  76.090  35.212  0.00  0.00    +0.045 C 
BRANCH  64  65
ATOM     65  CD  ARG A   9     -48.427  75.379  34.815  0.00  0.00    +0.174 C 
BRANCH  65  66
ATOM     66  NE  ARG A   9     -48.464  73.991  35.266  0.00  0.00    -0.265 N 
ATOM     67  CZ  ARG A   9     -49.082  73.594  36.376  0.00  0.00    +0.342 C 
ATOM     68  NH2 ARG A   9     -49.724  74.473  37.157  0.00  0.00    -0.292 N 
ATOM     69 HH21 ARG A   9     -50.202  74.148  38.021  0.00  0.00    +0.255 HD
ATOM     70 HH22 ARG A   9     -49.744  75.480  36.899  0.00  0.00    +0.255 HD
ATOM     71  NH1 ARG A   9     -49.071  72.319  36.734  0.00  0.00    -0.292 N 
ATOM     72 HH11 ARG A   9     -49.557  72.019  37.603  0.00  0.00    +0.255 HD
ATOM     73 HH12 ARG A   9     -48.577  71.618  36.146  0.00  0.00    +0.255 HD
ATOM     74  HE  ARG A   9     -47.981  73.273  34.689  0.00  0.00    +0.259 HD
ENDBRANCH  65  66
ENDBRANCH  64  65
ENDBRANCH  63  64
ENDBRANCH  60  63
ENDBRANCH  58  60
ENDBRANCH  55  56
ENDBRANCH  52  55
ENDBRANCH  50  51
BRANCH  50  75
ATOM     75  CB  ILE A   7     -38.886  79.784  35.371  0.00  0.00    +0.027 C 
ATOM     76  CG2 ILE A   7     -39.758  80.334  36.528  0.00  0.00    +0.002 C 
BRANCH  75  77
ATOM     77  CG1 ILE A   7     -37.466  80.360  35.446  0.00  0.00    +0.002 C 
ATOM     78  CD1 ILE A   7     -36.660  80.019  36.731  0.00  0.00    +0.000 C 
ENDBRANCH  75  77
ENDBRANCH  50  75
ENDBRANCH  48  50
ENDBRANCH  45  46
BRANCH  45  79
ATOM     79  CB  ILE A   6     -36.964  74.655  33.306  0.00  0.00    +0.027 C 
ATOM     80  CG2 ILE A   6     -38.511  74.723  33.365  0.00  0.00    +0.002 C 
BRANCH  79  81
ATOM     81  CG1 ILE A   6     -36.482  74.132  31.966  0.00  0.00    +0.002 C 
ATOM     82  CD1 ILE A   6     -36.686  72.645  31.745  0.00  0.00    +0.000 C 
ENDBRANCH  79  81
ENDBRANCH  45  79
ENDBRANCH   2  45
TORSDOF 29
REMARK  Name = ../refined-set-2016/2aqu/2aqu_pocket.pdb
REMARK  214 active torsions:
REMARK  status: ('A' for Active; 'I' for Inactive)
REMARK    1  A    between atoms: _1  and  _3
REMARK    2  A    between atoms: _3  and  _4
REMARK    3  A    between atoms: _3  and  _6
REMARK    4  A    between atoms: _6  and  _7
REMARK    5  A    between atoms: _7  and  _8
REMARK    6  A    between atoms: _8  and  _9
REMARK    7  A    between atoms: _18  and  _20
REMARK    8  A    between atoms: _20  and  _21
REMARK    9  A    between atoms: _20  and  _23
REMARK   10  A    between atoms: _23  and  _24
REMARK   11  A    between atoms: _27  and  _29
REMARK   12  A    between atoms: _29  and  _30
REMARK   13  A    between atoms: _29  and  _32
REMARK   14  A    between atoms: _32  and  _33
REMARK   15  A    between atoms: _36  and  _38
REMARK   16  A    between atoms: _38  and  _39
REMARK   17  A    between atoms: _38  and  _41
REMARK   18  A    between atoms: _41  and  _42
REMARK   19  A    between atoms: _45  and  _47
REMARK   20  A    between atoms: _47  and  _48
REMARK   21  A    between atoms: _47  and  _50
REMARK   22  A    between atoms: _50  and  _51
REMARK   23  A    between atoms: _54  and  _56
REMARK   24  A    between atoms: _56  and  _57
REMARK   25  A    between atoms: _59  and  _61
REMARK   26  A    between atoms: _61  and  _62
REMARK   27  A    between atoms: _65  and  _67
REMARK   28  A    between atoms: _67  and  _68
REMARK   29  A    between atoms: _67  and  _70
REMARK   30  A    between atoms: _70  and  _71
REMARK   31  A    between atoms: _74  and  _76
REMARK   32  A    between atoms: _76  and  _77
REMARK   33  A    between atoms: _76  and  _79
REMARK   34  A    between atoms: _79  and  _80
REMARK   35  A    between atoms: _83  and  _85
REMARK   36  A    between atoms: _85  and  _86
REMARK   37  A    between atoms: _85  and  _88
REMARK   38  A    between atoms: _88  and  _89
REMARK   39  A    between atoms: _92  and  _94
REMARK   40  A    between atoms: _94  and  _95
REMARK   41  A    between atoms: _94  and  _97
REMARK   42  A    between atoms: _100  and  _102
REMARK   43  A    between atoms: _102  and  _103
REMARK   44  A    between atoms: _102  and  _105
REMARK   45  A    between atoms: _105  and  _106
REMARK   46  A    between atoms: _106  and  _107
REMARK   47  A    between atoms: _107  and  _108
REMARK   48  A    between atoms: _108  and  _109
REMARK   49  A    between atoms: _113  and  _115
REMARK   50  A    between atoms: _115  and  _116
REMARK   51  A    between atoms: _115  and  _118
REMARK   52  A    between atoms: _118  and  _119
REMARK   53  A    between atoms: _122  and  _124
REMARK   54  A    between atoms: _124  and  _125
REMARK   55  A    between atoms: _127  and  _129
REMARK   56  A    between atoms: _129  and  _130
REMARK   57  A    between atoms: _132  and  _134
REMARK   58  A    between atoms: _134  and  _135
REMARK   59  A    between atoms: _134  and  _137
REMARK   60  A    between atoms: _137  and  _138
REMARK   61  A    between atoms: _141  and  _143
REMARK   62  A    between atoms: _143  and  _144
REMARK   63  A    between atoms: _146  and  _148
REMARK   64  A    between atoms: _148  and  _149
REMARK   65  A    between atoms: _151  and  _153
REMARK   66  A    between atoms: _153  and  _154
REMARK   67  A    between atoms: _153  and  _156
REMARK   68  A    between atoms: _156  and  _157
REMARK   69  A    between atoms: _163  and  _165
REMARK   70  A    between atoms: _165  and  _166
REMARK   71  A    between atoms: _165  and  _168
REMARK   72  A    between atoms: _168  and  _169
REMARK   73  A    between atoms: _172  and  _174
REMARK   74  A    between atoms: _174  and  _175
REMARK   75  A    between atoms: _174  and  _177
REMARK   76  A    between atoms: _177  and  _178
REMARK   77  A    between atoms: _182  and  _183
REMARK   78  A    between atoms: _188  and  _190
REMARK   79  A    between atoms: _190  and  _191
REMARK   80  A    between atoms: _190  and  _193
REMARK   81  A    between atoms: _193  and  _194
REMARK   82  A    between atoms: _198  and  _199
REMARK   83  A    between atoms: _204  and  _206
REMARK   84  A    between atoms: _206  and  _207
REMARK   85  A    between atoms: _206  and  _209
REMARK   86  A    between atoms: _212  and  _214
REMARK   87  A    between atoms: _214  and  _215
REMARK   88  A    between atoms: _214  and  _217
REMARK   89  A    between atoms: _217  and  _218
REMARK   90  A    between atoms: _223  and  _225
REMARK   91  A    between atoms: _225  and  _226
REMARK   92  A    between atoms: _225  and  _228
REMARK   93  A    between atoms: _228  and  _229
REMARK   94  A    between atoms: _232  and  _234
REMARK   95  A    between atoms: _234  and  _235
REMARK   96  A    between atoms: _234  and  _237
REMARK   97  A    between atoms: _237  and  _238
REMARK   98  A    between atoms: _241  and  _243
REMARK   99  A    between atoms: _243  and  _244
REMARK  100  A    between atoms: _246  and  _248
REMARK  101  A    between atoms: _248  and  _249
REMARK  102  A    between atoms: _248  and  _251
REMARK  103  A    between atoms: _251  and  _252
REMARK  104  A    between atoms: _252  and  _253
REMARK  105  A    between atoms: _253  and  _254
REMARK  106  A    between atoms: _263  and  _265
REMARK  107  A    between atoms: _265  and  _266
REMARK  108  A    between atoms: _265  and  _268
REMARK  109  A    between atoms: _268  and  _269
REMARK  110  A    between atoms: _269  and  _270
REMARK  111  A    between atoms: _270  and  _271
REMARK  112  A    between atoms: _280  and  _282
REMARK  113  A    between atoms: _282  and  _283
REMARK  114  A    between atoms: _282  and  _285
REMARK  115  A    between atoms: _285  and  _286
REMARK  116  A    between atoms: _289  and  _291
REMARK  117  A    between atoms: _291  and  _292
REMARK  118  A    between atoms: _291  and  _294
REMARK  119  A    between atoms: _294  and  _295
REMARK  120  A    between atoms: _298  and  _300
REMARK  121  A    between atoms: _300  and  _301
REMARK  122  A    between atoms: _300  and  _303
REMARK  123  A    between atoms: _303  and  _304
REMARK  124  A    between atoms: _307  and  _309
REMARK  125  A    between atoms: _309  and  _310
REMARK  126  A    between atoms: _309  and  _312
REMARK  127  A    between atoms: _312  and  _313
REMARK  128  A    between atoms: _316  and  _318
REMARK  129  A    between atoms: _318  and  _319
REMARK  130  A    between atoms: _321  and  _323
REMARK  131  A    between atoms: _323  and  _324
REMARK  132  A    between atoms: _327  and  _329
REMARK  133  A    between atoms: _329  and  _330
REMARK  134  A    between atoms: _329  and  _332
REMARK  135  A    between atoms: _332  and  _333
REMARK  136  A    between atoms: _336  and  _338
REMARK  137  A    between atoms: _338  and  _339
REMARK  138  A    between atoms: _338  and  _341
REMARK  139  A    between atoms: _341  and  _342
REMARK  140  A    between atoms: _345  and  _347
REMARK  141  A    between atoms: _347  and  _348
REMARK  142  A    between atoms: _347  and  _350
REMARK  143  A    between atoms: _350  and  _351
REMARK  144  A    between atoms: _354  and  _356
REMARK  145  A    between atoms: _356  and  _357
REMARK  146  A    between atoms: _356  and  _359
REMARK  147  A    between atoms: _362  and  _364
REMARK  148  A    between atoms: _364  and  _365
REMARK  149  A    between atoms: _364  and  _367
REMARK  150  A    between atoms: _367  and  _368
REMARK  151  A    between atoms: _368  and  _369
REMARK  152  A    between atoms: _369  and  _370
REMARK  153  A    between atoms: _370  and  _371
REMARK  154  A    between atoms: _375  and  _377
REMARK  155  A    between atoms: _377  and  _378
REMARK  156  A    between atoms: _377  and  _380
REMARK  157  A    between atoms: _380  and  _381
REMARK  158  A    between atoms: _381  and  _382
REMARK  159  A    between atoms: _384  and  _386
REMARK  160  A    between atoms: _386  and  _387
REMARK  161  A    between atoms: _386  and  _389
REMARK  162  A    between atoms: _389  and  _390
REMARK  163  A    between atoms: _393  and  _395
REMARK  164  A    between atoms: _395  and  _396
REMARK  165  A    between atoms: _398  and  _400
REMARK  166  A    between atoms: _400  and  _401
REMARK  167  A    between atoms: _403  and  _405
REMARK  168  A    between atoms: _405  and  _406
REMARK  169  A    between atoms: _405  and  _408
REMARK  170  A    between atoms: _408  and  _409
REMARK  171  A    between atoms: _412  and  _414
REMARK  172  A    between atoms: _414  and  _415
REMARK  173  A    between atoms: _417  and  _419
REMARK  174  A    between atoms: _419  and  _420
REMARK  175  A    between atoms: _422  and  _424
REMARK  176  A    between atoms: _424  and  _425
REMARK  177  A    between atoms: _424  and  _427
REMARK  178  A    between atoms: _427  and  _428
REMARK  179  A    between atoms: _434  and  _436
REMARK  180  A    between atoms: _436  and  _437
REMARK  181  A    between atoms: _436  and  _439
REMARK  182  A    between atoms: _439  and  _440
REMARK  183  A    between atoms: _443  and  _445
REMARK  184  A    between atoms: _445  and  _446
REMARK  185  A    between atoms: _445  and  _448
REMARK  186  A    between atoms: _448  and  _449
REMARK  187  A    between atoms: _452  and  _454
REMARK  188  A    between atoms: _454  and  _455
REMARK  189  A    between atoms: _454  and  _457
REMARK  190  A    between atoms: _457  and  _458
REMARK  191  A    between atoms: _462  and  _463
REMARK  192  A    between atoms: _468  and  _470
REMARK  193  A    between atoms: _470  and  _471
REMARK  194  A    between atoms: _470  and  _473
REMARK  195  A    between atoms: _476  and  _478
REMARK  196  A    between atoms: _478  and  _479
REMARK  197  A    between atoms: _478  and  _481
REMARK  198  A    between atoms: _481  and  _482
REMARK  199  A    between atoms: _487  and  _489
REMARK  200  A    between atoms: _489  and  _490
REMARK  201  A    between atoms: _489  and  _492
REMARK  202  A    between atoms: _492  and  _493
REMARK  203  A    between atoms: _496  and  _498
REMARK  204  A    between atoms: _498  and  _499
REMARK  205  A    between atoms: _498  and  _501
REMARK  206  A    between atoms: _501  and  _502
REMARK  207  A    between atoms: _505  and  _507
REMARK  208  A    between atoms: _507  and  _508
REMARK  209  A    between atoms: _510  and  _512
REMARK  210  A    between atoms: _512  and  _513
REMARK  211  A    between atoms: _512  and  _515
REMARK  212  A    between atoms: _515  and  _516
REMARK  213  A    between atoms: _516  and  _517
REMARK  214  A    between atoms: _517  and  _518
REMARK                            x       y       z     vdW  Elec       q    Type
REMARK                         _______ _______ _______ _____ _____    ______ ____
ROOT
ATOM      1  NE  ARG A   1     -49.526  68.810  34.818  0.00  0.00    -0.265 N 
ATOM      2  HE  ARG A   1     -49.092  69.423  35.537  0.00  0.00    +0.259 HD
ATOM      3  CZ  ARG A   1     -49.265  67.509  34.854  0.00  0.00    +0.342 C 
ATOM      4  NH2 ARG A   1     -48.471  66.979  35.773  0.00  0.00    -0.292 N 
ATOM      5 HH21 ARG A   1     -48.032  67.587  36.494  0.00  0.00    +0.255 HD
ATOM      6 HH22 ARG A   1     -48.287  65.955  35.773  0.00  0.00    +0.255 HD
ATOM      7  NH1 ARG A   1     -49.820  66.717  33.932  0.00  0.00    -0.292 N 
ATOM      8 HH11 ARG A   1     -49.629  65.695  33.942  0.00  0.00    +0.255 HD
ATOM      9 HH12 ARG A   1     -50.443  67.123  33.205  0.00  0.00    +0.255 HD
ENDROOT
BRANCH   1  10
ATOM     10  CD  ARG A   1     -50.390  69.418  33.821  0.00  0.00    +0.174 C 
BRANCH  10  11
ATOM     11  CG  ARG A   1     -50.463  70.904  34.018  0.00  0.00    +0.045 C 
BRANCH  11  12
ATOM     12  CB  ARG A   1     -51.513  71.553  33.157  0.00  0.00    +0.029 C 
BRANCH  12  13
ATOM     13  CA  ARG A   1     -51.683  73.032  33.483  0.00  0.00    +0.133 C 
BRANCH  13  14
ATOM     14  N   ARG A   1     -52.361  73.225  34.771  0.00  0.00    -0.239 NA
ATOM     15  H   ARG A   1     -52.764  72.408  35.273  0.00  0.00    +0.142 HD
ENDBRANCH  13  14
BRANCH  13  16
ATOM     16  C   ARG A   1     -52.579  73.679  32.441  0.00  0.00    +0.224 C 
ATOM     17  O   ARG A   1     -53.798  73.450  32.426  0.00  0.00    -0.287 OA
ENDBRANCH  13  16
ENDBRANCH  12  13
ENDBRANCH  11  12
ENDBRANCH  10  11
ENDBRANCH   1  10
TORSDOF 6
REMARK  Name = ../refined-set-2016/2aqu/2aqu_pocket.pdb
REMARK  214 active torsions:
REMARK  status: ('A' for Active; 'I' for Inactive)
REMARK    1  A    between atoms: _1  and  _3
REMARK    2  A    between atoms: _3  and  _4
REMARK    3  A    between atoms: _3  and  _6
REMARK    4  A    between atoms: _6  and  _7
REMARK    5  A    between atoms: _7  and  _8
REMARK    6  A    between atoms: _8  and  _9
REMARK    7  A    between atoms: _18  and  _20
REMARK    8  A    between atoms: _20  and  _21
REMARK    9  A    between atoms: _20  and  _23
REMARK   10  A    between atoms: _23  and  _24
REMARK   11  A    between atoms: _27  and  _29
REMARK   12  A    between atoms: _29  and  _30
REMARK   13  A    between atoms: _29  and  _32
REMARK   14  A    between atoms: _32  and  _33
REMARK   15  A    between atoms: _36  and  _38
REMARK   16  A    between atoms: _38  and  _39
REMARK   17  A    between atoms: _38  and  _41
REMARK   18  A    between atoms: _41  and  _42
REMARK   19  A    between atoms: _45  and  _47
REMARK   20  A    between atoms: _47  and  _48
REMARK   21  A    between atoms: _47  and  _50
REMARK   22  A    between atoms: _50  and  _51
REMARK   23  A    between atoms: _54  and  _56
REMARK   24  A    between atoms: _56  and  _57
REMARK   25  A    between atoms: _59  and  _61
REMARK   26  A    between atoms: _61  and  _62
REMARK   27  A    between atoms: _65  and  _67
REMARK   28  A    between atoms: _67  and  _68
REMARK   29  A    between atoms: _67  and  _70
REMARK   30  A    between atoms: _70  and  _71
REMARK   31  A    between atoms: _74  and  _76
REMARK   32  A    between atoms: _76  and  _77
REMARK   33  A    between atoms: _76  and  _79
REMARK   34  A    between atoms: _79  and  _80
REMARK   35  A    between atoms: _83  and  _85
REMARK   36  A    between atoms: _85  and  _86
REMARK   37  A    between atoms: _85  and  _88
REMARK   38  A    between atoms: _88  and  _89
REMARK   39  A    between atoms: _92  and  _94
REMARK   40  A    between atoms: _94  and  _95
REMARK   41  A    between atoms: _94  and  _97
REMARK   42  A    between atoms: _100  and  _102
REMARK   43  A    between atoms: _102  and  _103
REMARK   44  A    between atoms: _102  and  _105
REMARK   45  A    between atoms: _105  and  _106
REMARK   46  A    between atoms: _106  and  _107
REMARK   47  A    between atoms: _107  and  _108
REMARK   48  A    between atoms: _108  and  _109
REMARK   49  A    between atoms: _113  and  _115
REMARK   50  A    between atoms: _115  and  _116
REMARK   51  A    between atoms: _115  and  _118
REMARK   52  A    between atoms: _118  and  _119
REMARK   53  A    between atoms: _122  and  _124
REMARK   54  A    between atoms: _124  and  _125
REMARK   55  A    between atoms: _127  and  _129
REMARK   56  A    between atoms: _129  and  _130
REMARK   57  A    between atoms: _132  and  _134
REMARK   58  A    between atoms: _134  and  _135
REMARK   59  A    between atoms: _134  and  _137
REMARK   60  A    between atoms: _137  and  _138
REMARK   61  A    between atoms: _141  and  _143
REMARK   62  A    between atoms: _143  and  _144
REMARK   63  A    between atoms: _146  and  _148
REMARK   64  A    between atoms: _148  and  _149
REMARK   65  A    between atoms: _151  and  _153
REMARK   66  A    between atoms: _153  and  _154
REMARK   67  A    between atoms: _153  and  _156
REMARK   68  A    between atoms: _156  and  _157
REMARK   69  A    between atoms: _163  and  _165
REMARK   70  A    between atoms: _165  and  _166
REMARK   71  A    between atoms: _165  and  _168
REMARK   72  A    between atoms: _168  and  _169
REMARK   73  A    between atoms: _172  and  _174
REMARK   74  A    between atoms: _174  and  _175
REMARK   75  A    between atoms: _174  and  _177
REMARK   76  A    between atoms: _177  and  _178
REMARK   77  A    between atoms: _182  and  _183
REMARK   78  A    between atoms: _188  and  _190
REMARK   79  A    between atoms: _190  and  _191
REMARK   80  A    between atoms: _190  and  _193
REMARK   81  A    between atoms: _193  and  _194
REMARK   82  A    between atoms: _198  and  _199
REMARK   83  A    between atoms: _204  and  _206
REMARK   84  A    between atoms: _206  and  _207
REMARK   85  A    between atoms: _206  and  _209
REMARK   86  A    between atoms: _212  and  _214
REMARK   87  A    between atoms: _214  and  _215
REMARK   88  A    between atoms: _214  and  _217
REMARK   89  A    between atoms: _217  and  _218
REMARK   90  A    between atoms: _223  and  _225
REMARK   91  A    between atoms: _225  and  _226
REMARK   92  A    between atoms: _225  and  _228
REMARK   93  A    between atoms: _228  and  _229
REMARK   94  A    between atoms: _232  and  _234
REMARK   95  A    between atoms: _234  and  _235
REMARK   96  A    between atoms: _234  and  _237
REMARK   97  A    between atoms: _237  and  _238
REMARK   98  A    between atoms: _241  and  _243
REMARK   99  A    between atoms: _243  and  _244
REMARK  100  A    between atoms: _246  and  _248
REMARK  101  A    between atoms: _248  and  _249
REMARK  102  A    between atoms: _248  and  _251
REMARK  103  A    between atoms: _251  and  _252
REMARK  104  A    between atoms: _252  and  _253
REMARK  105  A    between atoms: _253  and  _254
REMARK  106  A    between atoms: _263  and  _265
REMARK  107  A    between atoms: _265  and  _266
REMARK  108  A    between atoms: _265  and  _268
REMARK  109  A    between atoms: _268  and  _269
REMARK  110  A    between atoms: _269  and  _270
REMARK  111  A    between atoms: _270  and  _271
REMARK  112  A    between atoms: _280  and  _282
REMARK  113  A    between atoms: _282  and  _283
REMARK  114  A    between atoms: _282  and  _285
REMARK  115  A    between atoms: _285  and  _286
REMARK  116  A    between atoms: _289  and  _291
REMARK  117  A    between atoms: _291  and  _292
REMARK  118  A    between atoms: _291  and  _294
REMARK  119  A    between atoms: _294  and  _295
REMARK  120  A    between atoms: _298  and  _300
REMARK  121  A    between atoms: _300  and  _301
REMARK  122  A    between atoms: _300  and  _303
REMARK  123  A    between atoms: _303  and  _304
REMARK  124  A    between atoms: _307  and  _309
REMARK  125  A    between atoms: _309  and  _310
REMARK  126  A    between atoms: _309  and  _312
REMARK  127  A    between atoms: _312  and  _313
REMARK  128  A    between atoms: _316  and  _318
REMARK  129  A    between atoms: _318  and  _319
REMARK  130  A    between atoms: _321  and  _323
REMARK  131  A    between atoms: _323  and  _324
REMARK  132  A    between atoms: _327  and  _329
REMARK  133  A    between atoms: _329  and  _330
REMARK  134  A    between atoms: _329  and  _332
REMARK  135  A    between atoms: _332  and  _333
REMARK  136  A    between atoms: _336  and  _338
REMARK  137  A    between atoms: _338  and  _339
REMARK  138  A    between atoms: _338  and  _341
REMARK  139  A    between atoms: _341  and  _342
REMARK  140  A    between atoms: _345  and  _347
REMARK  141  A    between atoms: _347  and  _348
REMARK  142  A    between atoms: _347  and  _350
REMARK  143  A    between atoms: _350  and  _351
REMARK  144  A    between atoms: _354  and  _356
REMARK  145  A    between atoms: _356  and  _357
REMARK  146  A    between atoms: _356  and  _359
REMARK  147  A    between atoms: _362  and  _364
REMARK  148  A    between atoms: _364  and  _365
REMARK  149  A    between atoms: _364  and  _367
REMARK  150  A    between atoms: _367  and  _368
REMARK  151  A    between atoms: _368  and  _369
REMARK  152  A    between atoms: _369  and  _370
REMARK  153  A    between atoms: _370  and  _371
REMARK  154  A    between atoms: _375  and  _377
REMARK  155  A    between atoms: _377  and  _378
REMARK  156  A    between atoms: _377  and  _380
REMARK  157  A    between atoms: _380  and  _381
REMARK  158  A    between atoms: _381  and  _382
REMARK  159  A    between atoms: _384  and  _386
REMARK  160  A    between atoms: _386  and  _387
REMARK  161  A    between atoms: _386  and  _389
REMARK  162  A    between atoms: _389  and  _390
REMARK  163  A    between atoms: _393  and  _395
REMARK  164  A    between atoms: _395  and  _396
REMARK  165  A    between atoms: _398  and  _400
REMARK  166  A    between atoms: _400  and  _401
REMARK  167  A    between atoms: _403  and  _405
REMARK  168  A    between atoms: _405  and  _406
REMARK  169  A    between atoms: _405  and  _408
REMARK  170  A    between atoms: _408  and  _409
REMARK  171  A    between atoms: _412  and  _414
REMARK  172  A    between atoms: _414  and  _415
REMARK  173  A    between atoms: _417  and  _419
REMARK  174  A    between atoms: _419  and  _420
REMARK  175  A    between atoms: _422  and  _424
REMARK  176  A    between atoms: _424  and  _425
REMARK  177  A    between atoms: _424  and  _427
REMARK  178  A    between atoms: _427  and  _428
REMARK  179  A    between atoms: _434  and  _436
REMARK  180  A    between atoms: _436  and  _437
REMARK  181  A    between atoms: _436  and  _439
REMARK  182  A    between atoms: _439  and  _440
REMARK  183  A    between atoms: _443  and  _445
REMARK  184  A    between atoms: _445  and  _446
REMARK  185  A    between atoms: _445  and  _448
REMARK  186  A    between atoms: _448  and  _449
REMARK  187  A    between atoms: _452  and  _454
REMARK  188  A    between atoms: _454  and  _455
REMARK  189  A    between atoms: _454  and  _457
REMARK  190  A    between atoms: _457  and  _458
REMARK  191  A    between atoms: _462  and  _463
REMARK  192  A    between atoms: _468  and  _470
REMARK  193  A    between atoms: _470  and  _471
REMARK  194  A    between atoms: _470  and  _473
REMARK  195  A    between atoms: _476  and  _478
REMARK  196  A    between atoms: _478  and  _479
REMARK  197  A    between atoms: _478  and  _481
REMARK  198  A    between atoms: _481  and  _482
REMARK  199  A    between atoms: _487  and  _489
REMARK  200  A    between atoms: _489  and  _490
REMARK  201  A    between atoms: _489  and  _492
REMARK  202  A    between atoms: _492  and  _493
REMARK  203  A    between atoms: _496  and  _498
REMARK  204  A    between atoms: _498  and  _499
REMARK  205  A    between atoms: _498  and  _501
REMARK  206  A    between atoms: _501  and  _502
REMARK  207  A    between atoms: _505  and  _507
REMARK  208  A    between atoms: _507  and  _508
REMARK  209  A    between atoms: _510  and  _512
REMARK  210  A    between atoms: _512  and  _513
REMARK  211  A    between atoms: _512  and  _515
REMARK  212  A    between atoms: _515  and  _516
REMARK  213  A    between atoms: _516  and  _517
REMARK  214  A    between atoms: _517  and  _518
REMARK                            x       y       z     vdW  Elec       q    Type
REMARK                         _______ _______ _______ _____ _____    ______ ____
ROOT
ATOM      1  C   GLY A   5     -40.536  74.736  25.650  0.00  0.00    +0.243 C 
ATOM      2  O   GLY A   5     -39.593  73.941  25.688  0.00  0.00    -0.273 OA
ATOM      3  N   ALA A   6     -41.412  74.751  24.664  0.00  0.00    -0.297 N 
ATOM      4  H   ALA A   6     -42.184  75.448  24.666  0.00  0.00    +0.150 HD
ENDROOT
BRANCH   3   5
ATOM      5  CA  ALA A   6     -41.299  73.793  23.573  0.00  0.00    +0.149 C 
ATOM      6  CB  ALA A   6     -42.561  72.858  23.552  0.00  0.00    +0.031 C 
BRANCH   5   7
ATOM      7  C   ALA A   6     -41.124  74.512  22.222  0.00  0.00    +0.241 C 
ATOM      8  O   ALA A   6     -41.989  75.268  21.795  0.00  0.00    -0.273 OA
ATOM      9  N   ASP A   7     -39.994  74.273  21.560  0.00  0.00    -0.297 N 
ATOM     10  H   ASP A   7     -39.279  73.648  21.983  0.00  0.00    +0.150 HD
BRANCH   9  11
ATOM     11  CA  ASP A   7     -39.733  74.879  20.232  0.00  0.00    +0.160 C 
BRANCH  11  12
ATOM     12  C   ASP A   7     -40.720  74.248  19.268  0.00  0.00    +0.241 C 
ATOM     13  N   ASP A   8     -40.944  72.945  19.455  0.00  0.00    -0.297 N 
ATOM     14  H   ASP A   8     -40.483  72.473  20.259  0.00  0.00    +0.150 HD
ATOM     15  O   ASP A   7     -41.238  74.917  18.375  0.00  0.00    -0.273 OA
BRANCH  13  16
ATOM     16  CA  ASP A   8     -41.809  72.148  18.581  0.00  0.00    +0.160 C 
BRANCH  16  17
ATOM     17  C   ASP A   8     -43.151  71.686  19.186  0.00  0.00    +0.241 C 
ATOM     18  O   ASP A   8     -43.348  71.664  20.411  0.00  0.00    -0.273 OA
ATOM     19  N   THR A   9     -44.059  71.298  18.288  0.00  0.00    -0.295 N 
ATOM     20  H   THR A   9     -43.814  71.355  17.279  0.00  0.00    +0.150 HD
BRANCH  19  21
ATOM     21  CA  THR A   9     -45.381  70.797  18.656  0.00  0.00    +0.176 C 
BRANCH  21  22
ATOM     22  C   THR A   9     -45.314  69.283  18.553  0.00  0.00    +0.243 C 
ATOM     23  N   VAL A  10     -45.533  68.599  19.676  0.00  0.00    -0.298 N 
ATOM     24  H   VAL A  10     -45.707  69.091  20.575  0.00  0.00    +0.150 HD
ATOM     25  O   THR A   9     -45.064  68.745  17.483  0.00  0.00    -0.273 OA
BRANCH  23  26
ATOM     26  CA  VAL A  10     -45.522  67.148  19.610  0.00  0.00    +0.137 C 
BRANCH  26  27
ATOM     27  CB  VAL A  10     -44.253  66.565  20.274  0.00  0.00    +0.026 C 
ATOM     28  CG2 VAL A  10     -44.199  66.927  21.737  0.00  0.00    +0.002 C 
ATOM     29  CG1 VAL A  10     -44.245  65.067  20.133  0.00  0.00    +0.002 C 
ENDBRANCH  26  27
BRANCH  26  30
ATOM     30  C   VAL A  10     -46.775  66.435  20.162  0.00  0.00    +0.227 C 
ATOM     31  O   VAL A  10     -47.260  66.692  21.267  0.00  0.00    -0.286 OA
ENDBRANCH  26  30
ENDBRANCH  23  26
ENDBRANCH  21  22
BRANCH  21  32
ATOM     32  CB  THR A   9     -46.452  71.312  17.682  0.00  0.00    +0.137 C 
ATOM     33  CG2 THR A   9     -47.810  70.626  17.887  0.00  0.00    +0.034 C 
BRANCH  32  34
ATOM     34  OG1 THR A   9     -46.608  72.700  17.891  0.00  0.00    -0.382 OA
ATOM     35  HG1 THR A   9     -45.746  73.157  17.722  0.00  0.00    +0.210 HD
ENDBRANCH  32  34
ENDBRANCH  21  32
ENDBRANCH  19  21
ENDBRANCH  16  17
BRANCH  16  36
ATOM     36  CB  ASP A   8     -41.063  70.890  18.109  0.00  0.00    +0.143 C 
BRANCH  36  37
ATOM     37  CG  ASP A   8     -39.753  71.201  17.365  0.00  0.00    +0.367 C 
ATOM     38  OD2 ASP A   8     -38.795  70.410  17.485  0.00  0.00    -0.246 OA
ATOM     39  OD1 ASP A   8     -39.686  72.208  16.644  0.00  0.00    -0.246 OA
ENDBRANCH  36  37
ENDBRANCH  16  36
ENDBRANCH  13  16
ENDBRANCH  11  12
BRANCH  11  40
ATOM     40  CB  ASP A   7     -38.344  74.512  19.693  0.00  0.00    +0.143 C 
BRANCH  40  41
ATOM     41  CG  ASP A   7     -37.199  75.083  20.532  0.00  0.00    +0.367 C 
ATOM     42  OD2 ASP A   7     -37.440  75.776  21.537  0.00  0.00    -0.246 OA
ATOM     43  OD1 ASP A   7     -36.042  74.843  20.137  0.00  0.00    -0.246 OA
ENDBRANCH  40  41
ENDBRANCH  11  40
ENDBRANCH   9  11
ENDBRANCH   5   7
ENDBRANCH   3   5
BRANCH   1  44
ATOM     44  CA  GLY A   5     -40.727  75.758  26.757  0.00  0.00    +0.176 C 
BRANCH  44  46
ATOM     45  C   THR A   4     -42.311  77.450  26.024  0.00  0.00    +0.243 C 
ATOM     46  N   GLY A   5     -42.058  76.333  26.711  0.00  0.00    -0.295 N 
ATOM     47  H   GLY A   5     -42.832  75.865  27.224  0.00  0.00    +0.150 HD
ATOM     48  O   THR A   4     -41.436  78.058  25.403  0.00  0.00    -0.273 OA
BRANCH  45  49
ATOM     49  CA  THR A   4     -43.716  77.999  25.985  0.00  0.00    +0.176 C 
BRANCH  49  51
ATOM     50  C   ASP A   3     -44.910  75.934  25.642  0.00  0.00    +0.241 C 
ATOM     51  N   THR A   4     -44.697  77.018  26.376  0.00  0.00    -0.295 N 
ATOM     52  H   THR A   4     -45.246  77.162  27.247  0.00  0.00    +0.150 HD
ATOM     53  O   ASP A   3     -44.316  75.671  24.582  0.00  0.00    -0.273 OA
BRANCH  50  54
ATOM     54  CA  ASP A   3     -45.946  74.996  26.224  0.00  0.00    +0.160 C 
BRANCH  54  57
ATOM     55  C   LEU A   2     -48.353  75.351  26.439  0.00  0.00    +0.241 C 
ATOM     56  O   LEU A   2     -48.295  75.690  27.652  0.00  0.00    -0.273 OA
ATOM     57  N   ASP A   3     -47.288  75.116  25.682  0.00  0.00    -0.297 N 
ATOM     58  H   ASP A   3     -47.421  75.013  24.656  0.00  0.00    +0.150 HD
BRANCH  55  59
ATOM     59  CA  LEU A   2     -49.697  75.221  25.697  0.00  0.00    +0.149 C 
BRANCH  59  61
ATOM     60  C   LEU A   1     -49.973  72.803  25.914  0.00  0.00    +0.238 C 
ATOM     61  N   LEU A   2     -50.340  74.032  26.285  0.00  0.00    -0.297 N 
ATOM     62  H   LEU A   2     -51.088  74.152  26.997  0.00  0.00    +0.150 HD
ATOM     63  O   LEU A   1     -49.135  72.589  25.022  0.00  0.00    -0.274 OA
BRANCH  60  64
ATOM     64  CA  LEU A   1     -50.660  71.628  26.629  0.00  0.00    +0.145 C 
BRANCH  64  65
ATOM     65  N   LEU A   1     -51.263  70.680  25.729  0.00  0.00    -0.238 NA
ATOM     66  H   LEU A   1     -50.687  69.894  25.364  0.00  0.00    +0.142 HD
ENDBRANCH  64  65
BRANCH  64  67
ATOM     67  CB  LEU A   1     -49.654  70.810  27.469  0.00  0.00    +0.026 C 
BRANCH  67  68
ATOM     68  CG  LEU A   1     -48.608  71.458  28.364  0.00  0.00    +0.002 C 
ATOM     69  CD2 LEU A   1     -49.362  72.228  29.463  0.00  0.00    +0.000 C 
ATOM     70  CD1 LEU A   1     -47.687  70.416  29.026  0.00  0.00    +0.000 C 
ENDBRANCH  67  68
ENDBRANCH  64  67
ENDBRANCH  60  64
ENDBRANCH  59  61
BRANCH  59  71
ATOM     71  CB  LEU A   2     -50.516  76.475  25.941  0.00  0.00    +0.029 C 
BRANCH  71  72
ATOM     72  CG  LEU A   2     -51.943  76.432  25.380  0.00  0.00    +0.002 C 
ATOM     73  CD2 LEU A   2     -52.664  77.708  25.792  0.00  0.00    +0.000 C 
ATOM     74  CD1 LEU A   2     -51.948  76.287  23.879  0.00  0.00    +0.000 C 
ENDBRANCH  71  72
ENDBRANCH  59  71
ENDBRANCH  55  59
ENDBRANCH  54  57
BRANCH  54  75
ATOM     75  CB  ASP A   3     -45.565  73.535  25.951  0.00  0.00    +0.143 C 
BRANCH  75  76
ATOM     76  CG  ASP A   3     -44.248  73.117  26.563  0.00  0.00    +0.367 C 
ATOM     77  OD2 ASP A   3     -43.589  73.954  27.197  0.00  0.00    -0.246 OA
ATOM     78  OD1 ASP A   3     -43.854  71.956  26.384  0.00  0.00    -0.246 OA
ENDBRANCH  75  76
ENDBRANCH  54  75
ENDBRANCH  50  54
ENDBRANCH  49  51
BRANCH  49  79
ATOM     79  CB  THR A   4     -43.763  79.294  26.883  0.00  0.00    +0.137 C 
ATOM     80  CG2 THR A   4     -45.079  80.025  26.679  0.00  0.00    +0.034 C 
BRANCH  79  81
ATOM     81  OG1 THR A   4     -43.630  78.951  28.278  0.00  0.00    -0.382 OA
ATOM     82  HG1 THR A   4     -42.765  78.491  28.423  0.00  0.00    +0.210 HD
ENDBRANCH  79  81
ENDBRANCH  49  79
ENDBRANCH  45  49
ENDBRANCH  44  46
ENDBRANCH   1  44
TORSDOF 35
REMARK  Name = ../refined-set-2016/2aqu/2aqu_pocket.pdb
REMARK  214 active torsions:
REMARK  status: ('A' for Active; 'I' for Inactive)
REMARK    1  A    between atoms: _1  and  _3
REMARK    2  A    between atoms: _3  and  _4
REMARK    3  A    between atoms: _3  and  _6
REMARK    4  A    between atoms: _6  and  _7
REMARK    5  A    between atoms: _7  and  _8
REMARK    6  A    between atoms: _8  and  _9
REMARK    7  A    between atoms: _18  and  _20
REMARK    8  A    between atoms: _20  and  _21
REMARK    9  A    between atoms: _20  and  _23
REMARK   10  A    between atoms: _23  and  _24
REMARK   11  A    between atoms: _27  and  _29
REMARK   12  A    between atoms: _29  and  _30
REMARK   13  A    between atoms: _29  and  _32
REMARK   14  A    between atoms: _32  and  _33
REMARK   15  A    between atoms: _36  and  _38
REMARK   16  A    between atoms: _38  and  _39
REMARK   17  A    between atoms: _38  and  _41
REMARK   18  A    between atoms: _41  and  _42
REMARK   19  A    between atoms: _45  and  _47
REMARK   20  A    between atoms: _47  and  _48
REMARK   21  A    between atoms: _47  and  _50
REMARK   22  A    between atoms: _50  and  _51
REMARK   23  A    between atoms: _54  and  _56
REMARK   24  A    between atoms: _56  and  _57
REMARK   25  A    between atoms: _59  and  _61
REMARK   26  A    between atoms: _61  and  _62
REMARK   27  A    between atoms: _65  and  _67
REMARK   28  A    between atoms: _67  and  _68
REMARK   29  A    between atoms: _67  and  _70
REMARK   30  A    between atoms: _70  and  _71
REMARK   31  A    between atoms: _74  and  _76
REMARK   32  A    between atoms: _76  and  _77
REMARK   33  A    between atoms: _76  and  _79
REMARK   34  A    between atoms: _79  and  _80
REMARK   35  A    between atoms: _83  and  _85
REMARK   36  A    between atoms: _85  and  _86
REMARK   37  A    between atoms: _85  and  _88
REMARK   38  A    between atoms: _88  and  _89
REMARK   39  A    between atoms: _92  and  _94
REMARK   40  A    between atoms: _94  and  _95
REMARK   41  A    between atoms: _94  and  _97
REMARK   42  A    between atoms: _100  and  _102
REMARK   43  A    between atoms: _102  and  _103
REMARK   44  A    between atoms: _102  and  _105
REMARK   45  A    between atoms: _105  and  _106
REMARK   46  A    between atoms: _106  and  _107
REMARK   47  A    between atoms: _107  and  _108
REMARK   48  A    between atoms: _108  and  _109
REMARK   49  A    between atoms: _113  and  _115
REMARK   50  A    between atoms: _115  and  _116
REMARK   51  A    between atoms: _115  and  _118
REMARK   52  A    between atoms: _118  and  _119
REMARK   53  A    between atoms: _122  and  _124
REMARK   54  A    between atoms: _124  and  _125
REMARK   55  A    between atoms: _127  and  _129
REMARK   56  A    between atoms: _129  and  _130
REMARK   57  A    between atoms: _132  and  _134
REMARK   58  A    between atoms: _134  and  _135
REMARK   59  A    between atoms: _134  and  _137
REMARK   60  A    between atoms: _137  and  _138
REMARK   61  A    between atoms: _141  and  _143
REMARK   62  A    between atoms: _143  and  _144
REMARK   63  A    between atoms: _146  and  _148
REMARK   64  A    between atoms: _148  and  _149
REMARK   65  A    between atoms: _151  and  _153
REMARK   66  A    between atoms: _153  and  _154
REMARK   67  A    between atoms: _153  and  _156
REMARK   68  A    between atoms: _156  and  _157
REMARK   69  A    between atoms: _163  and  _165
REMARK   70  A    between atoms: _165  and  _166
REMARK   71  A    between atoms: _165  and  _168
REMARK   72  A    between atoms: _168  and  _169
REMARK   73  A    between atoms: _172  and  _174
REMARK   74  A    between atoms: _174  and  _175
REMARK   75  A    between atoms: _174  and  _177
REMARK   76  A    between atoms: _177  and  _178
REMARK   77  A    between atoms: _182  and  _183
REMARK   78  A    between atoms: _188  and  _190
REMARK   79  A    between atoms: _190  and  _191
REMARK   80  A    between atoms: _190  and  _193
REMARK   81  A    between atoms: _193  and  _194
REMARK   82  A    between atoms: _198  and  _199
REMARK   83  A    between atoms: _204  and  _206
REMARK   84  A    between atoms: _206  and  _207
REMARK   85  A    between atoms: _206  and  _209
REMARK   86  A    between atoms: _212  and  _214
REMARK   87  A    between atoms: _214  and  _215
REMARK   88  A    between atoms: _214  and  _217
REMARK   89  A    between atoms: _217  and  _218
REMARK   90  A    between atoms: _223  and  _225
REMARK   91  A    between atoms: _225  and  _226
REMARK   92  A    between atoms: _225  and  _228
REMARK   93  A    between atoms: _228  and  _229
REMARK   94  A    between atoms: _232  and  _234
REMARK   95  A    between atoms: _234  and  _235
REMARK   96  A    between atoms: _234  and  _237
REMARK   97  A    between atoms: _237  and  _238
REMARK   98  A    between atoms: _241  and  _243
REMARK   99  A    between atoms: _243  and  _244
REMARK  100  A    between atoms: _246  and  _248
REMARK  101  A    between atoms: _248  and  _249
REMARK  102  A    between atoms: _248  and  _251
REMARK  103  A    between atoms: _251  and  _252
REMARK  104  A    between atoms: _252  and  _253
REMARK  105  A    between atoms: _253  and  _254
REMARK  106  A    between atoms: _263  and  _265
REMARK  107  A    between atoms: _265  and  _266
REMARK  108  A    between atoms: _265  and  _268
REMARK  109  A    between atoms: _268  and  _269
REMARK  110  A    between atoms: _269  and  _270
REMARK  111  A    between atoms: _270  and  _271
REMARK  112  A    between atoms: _280  and  _282
REMARK  113  A    between atoms: _282  and  _283
REMARK  114  A    between atoms: _282  and  _285
REMARK  115  A    between atoms: _285  and  _286
REMARK  116  A    between atoms: _289  and  _291
REMARK  117  A    between atoms: _291  and  _292
REMARK  118  A    between atoms: _291  and  _294
REMARK  119  A    between atoms: _294  and  _295
REMARK  120  A    between atoms: _298  and  _300
REMARK  121  A    between atoms: _300  and  _301
REMARK  122  A    between atoms: _300  and  _303
REMARK  123  A    between atoms: _303  and  _304
REMARK  124  A    between atoms: _307  and  _309
REMARK  125  A    between atoms: _309  and  _310
REMARK  126  A    between atoms: _309  and  _312
REMARK  127  A    between atoms: _312  and  _313
REMARK  128  A    between atoms: _316  and  _318
REMARK  129  A    between atoms: _318  and  _319
REMARK  130  A    between atoms: _321  and  _323
REMARK  131  A    between atoms: _323  and  _324
REMARK  132  A    between atoms: _327  and  _329
REMARK  133  A    between atoms: _329  and  _330
REMARK  134  A    between atoms: _329  and  _332
REMARK  135  A    between atoms: _332  and  _333
REMARK  136  A    between atoms: _336  and  _338
REMARK  137  A    between atoms: _338  and  _339
REMARK  138  A    between atoms: _338  and  _341
REMARK  139  A    between atoms: _341  and  _342
REMARK  140  A    between atoms: _345  and  _347
REMARK  141  A    between atoms: _347  and  _348
REMARK  142  A    between atoms: _347  and  _350
REMARK  143  A    between atoms: _350  and  _351
REMARK  144  A    between atoms: _354  and  _356
REMARK  145  A    between atoms: _356  and  _357
REMARK  146  A    between atoms: _356  and  _359
REMARK  147  A    between atoms: _362  and  _364
REMARK  148  A    between atoms: _364  and  _365
REMARK  149  A    between atoms: _364  and  _367
REMARK  150  A    between atoms: _367  and  _368
REMARK  151  A    between atoms: _368  and  _369
REMARK  152  A    between atoms: _369  and  _370
REMARK  153  A    between atoms: _370  and  _371
REMARK  154  A    between atoms: _375  and  _377
REMARK  155  A    between atoms: _377  and  _378
REMARK  156  A    between atoms: _377  and  _380
REMARK  157  A    between atoms: _380  and  _381
REMARK  158  A    between atoms: _381  and  _382
REMARK  159  A    between atoms: _384  and  _386
REMARK  160  A    between atoms: _386  and  _387
REMARK  161  A    between atoms: _386  and  _389
REMARK  162  A    between atoms: _389  and  _390
REMARK  163  A    between atoms: _393  and  _395
REMARK  164  A    between atoms: _395  and  _396
REMARK  165  A    between atoms: _398  and  _400
REMARK  166  A    between atoms: _400  and  _401
REMARK  167  A    between atoms: _403  and  _405
REMARK  168  A    between atoms: _405  and  _406
REMARK  169  A    between atoms: _405  and  _408
REMARK  170  A    between atoms: _408  and  _409
REMARK  171  A    between atoms: _412  and  _414
REMARK  172  A    between atoms: _414  and  _415
REMARK  173  A    between atoms: _417  and  _419
REMARK  174  A    between atoms: _419  and  _420
REMARK  175  A    between atoms: _422  and  _424
REMARK  176  A    between atoms: _424  and  _425
REMARK  177  A    between atoms: _424  and  _427
REMARK  178  A    between atoms: _427  and  _428
REMARK  179  A    between atoms: _434  and  _436
REMARK  180  A    between atoms: _436  and  _437
REMARK  181  A    between atoms: _436  and  _439
REMARK  182  A    between atoms: _439  and  _440
REMARK  183  A    between atoms: _443  and  _445
REMARK  184  A    between atoms: _445  and  _446
REMARK  185  A    between atoms: _445  and  _448
REMARK  186  A    between atoms: _448  and  _449
REMARK  187  A    between atoms: _452  and  _454
REMARK  188  A    between atoms: _454  and  _455
REMARK  189  A    between atoms: _454  and  _457
REMARK  190  A    between atoms: _457  and  _458
REMARK  191  A    between atoms: _462  and  _463
REMARK  192  A    between atoms: _468  and  _470
REMARK  193  A    between atoms: _470  and  _471
REMARK  194  A    between atoms: _470  and  _473
REMARK  195  A    between atoms: _476  and  _478
REMARK  196  A    between atoms: _478  and  _479
REMARK  197  A    between atoms: _478  and  _481
REMARK  198  A    between atoms: _481  and  _482
REMARK  199  A    between atoms: _487  and  _489
REMARK  200  A    between atoms: _489  and  _490
REMARK  201  A    between atoms: _489  and  _492
REMARK  202  A    between atoms: _492  and  _493
REMARK  203  A    between atoms: _496  and  _498
REMARK  204  A    between atoms: _498  and  _499
REMARK  205  A    between atoms: _498  and  _501
REMARK  206  A    between atoms: _501  and  _502
REMARK  207  A    between atoms: _505  and  _507
REMARK  208  A    between atoms: _507  and  _508
REMARK  209  A    between atoms: _510  and  _512
REMARK  210  A    between atoms: _512  and  _513
REMARK  211  A    between atoms: _512  and  _515
REMARK  212  A    between atoms: _515  and  _516
REMARK  213  A    between atoms: _516  and  _517
REMARK  214  A    between atoms: _517  and  _518
REMARK                            x       y       z     vdW  Elec       q    Type
REMARK                         _______ _______ _______ _____ _____    ______ ____
ROOT
ATOM      1  C   GLY A   5     -35.380  66.617  27.509  0.00  0.00    +0.243 C 
ATOM      2  N   ILE A   6     -36.088  66.706  28.624  0.00  0.00    -0.297 N 
ATOM      3  H   ILE A   6     -37.098  66.952  28.599  0.00  0.00    +0.150 HD
ATOM      4  O   GLY A   5     -34.189  66.299  27.470  0.00  0.00    -0.273 OA
ENDROOT
BRANCH   2   5
ATOM      5  CA  ILE A   6     -35.425  66.455  29.859  0.00  0.00    +0.149 C 
BRANCH   5   6
ATOM      6  C   ILE A   6     -34.865  65.028  30.030  0.00  0.00    +0.241 C 
ATOM      7  O   ILE A   6     -33.706  64.922  30.445  0.00  0.00    -0.273 OA
ATOM      8  N   GLY A   7     -35.546  63.966  29.751  0.00  0.00    -0.295 N 
ATOM      9  H   GLY A   7     -36.523  63.989  29.395  0.00  0.00    +0.150 HD
BRANCH   8  10
ATOM     10  CA  GLY A   7     -34.804  62.729  29.987  0.00  0.00    +0.176 C 
BRANCH  10  11
ATOM     11  C   GLY A   7     -34.029  62.134  28.808  0.00  0.00    +0.243 C 
ATOM     12  O   GLY A   7     -33.617  60.975  28.872  0.00  0.00    -0.273 OA
ATOM     13  N   GLY A   8     -33.844  62.860  27.754  0.00  0.00    -0.295 N 
ATOM     14  H   GLY A   8     -34.102  63.867  27.737  0.00  0.00    +0.150 HD
BRANCH  13  15
ATOM     15  CA  GLY A   8     -33.272  62.219  26.618  0.00  0.00    +0.176 C 
BRANCH  15  16
ATOM     16  C   GLY A   8     -34.029  62.567  25.354  0.00  0.00    +0.243 C 
ATOM     17  O   GLY A   8     -34.563  63.664  25.199  0.00  0.00    -0.273 OA
ATOM     18  N   PHE A   9     -34.094  61.622  24.493  0.00  0.00    -0.297 N 
ATOM     19  H   PHE A   9     -33.834  60.647  24.745  0.00  0.00    +0.150 HD
BRANCH  18  20
ATOM     20  CA  PHE A   9     -34.532  61.948  23.185  0.00  0.00    +0.153 C 
BRANCH  20  21
ATOM     21  C   PHE A   9     -35.497  60.967  22.632  0.00  0.00    +0.241 C 
ATOM     22  O   PHE A   9     -35.403  59.790  22.915  0.00  0.00    -0.273 OA
ATOM     23  N   ILE A  10     -36.429  61.445  21.829  0.00  0.00    -0.298 N 
ATOM     24  H   ILE A  10     -36.486  62.462  21.618  0.00  0.00    +0.150 HD
BRANCH  23  25
ATOM     25  CA  ILE A  10     -37.360  60.518  21.257  0.00  0.00    +0.137 C 
BRANCH  25  26
ATOM     26  C   ILE A  10     -37.415  60.638  19.755  0.00  0.00    +0.227 C 
ATOM     27  O   ILE A  10     -37.092  61.661  19.215  0.00  0.00    -0.286 OA
ENDBRANCH  25  26
BRANCH  25  28
ATOM     28  CB  ILE A  10     -38.738  60.669  21.872  0.00  0.00    +0.026 C 
ATOM     29  CG2 ILE A  10     -38.646  60.474  23.415  0.00  0.00    +0.002 C 
BRANCH  28  30
ATOM     30  CG1 ILE A  10     -39.294  62.037  21.508  0.00  0.00    +0.002 C 
ATOM     31  CD1 ILE A  10     -40.743  62.042  21.534  0.00  0.00    +0.000 C 
ENDBRANCH  28  30
ENDBRANCH  25  28
ENDBRANCH  23  25
ENDBRANCH  20  21
BRANCH  20  32
ATOM     32  CB  PHE A   9     -33.255  62.015  22.351  0.00  0.00    +0.055 C 
BRANCH  32  33
ATOM     33  CG  PHE A   9     -32.617  60.728  22.150  0.00  0.00    -0.020 A 
ATOM     34  CD2 PHE A   9     -31.445  60.417  22.817  0.00  0.00    -0.004 A 
ATOM     35  CE2 PHE A   9     -30.823  59.228  22.580  0.00  0.00    -0.000 A 
ATOM     36  CZ  PHE A   9     -31.375  58.356  21.678  0.00  0.00    -0.000 A 
ATOM     37  CE1 PHE A   9     -32.502  58.631  21.022  0.00  0.00    -0.000 A 
ATOM     38  CD1 PHE A   9     -33.149  59.823  21.246  0.00  0.00    -0.004 A 
ENDBRANCH  32  33
ENDBRANCH  20  32
ENDBRANCH  18  20
ENDBRANCH  15  16
ENDBRANCH  13  15
ENDBRANCH  10  11
ENDBRANCH   8  10
ENDBRANCH   5   6
BRANCH   5  39
ATOM     39  CB  ILE A   6     -36.297  66.889  31.055  0.00  0.00    +0.027 C 
ATOM     40  CG2 ILE A   6     -36.841  65.679  31.788  0.00  0.00    +0.002 C 
BRANCH  39  41
ATOM     41  CG1 ILE A   6     -35.431  67.660  32.050  0.00  0.00    +0.002 C 
ATOM     42  CD1 ILE A   6     -35.142  69.079  31.587  0.00  0.00    +0.000 C 
ENDBRANCH  39  41
ENDBRANCH   5  39
ENDBRANCH   2   5
BRANCH   1  43
ATOM     43  CA  GLY A   5     -36.169  66.894  26.231  0.00  0.00    +0.176 C 
BRANCH  43  45
ATOM     44  C   GLY A   4     -35.501  66.976  23.885  0.00  0.00    +0.243 C 
ATOM     45  N   GLY A   5     -35.511  66.353  25.059  0.00  0.00    -0.295 N 
ATOM     46  H   GLY A   5     -35.025  65.437  25.140  0.00  0.00    +0.150 HD
ATOM     47  O   GLY A   4     -36.039  68.063  23.703  0.00  0.00    -0.273 OA
BRANCH  44  48
ATOM     48  CA  GLY A   4     -34.747  66.240  22.773  0.00  0.00    +0.176 C 
BRANCH  48  50
ATOM     49  C   ILE A   3     -35.705  65.336  20.753  0.00  0.00    +0.241 C 
ATOM     50  N   GLY A   4     -35.193  66.372  21.385  0.00  0.00    -0.295 N 
ATOM     51  H   GLY A   4     -35.105  67.286  20.897  0.00  0.00    +0.150 HD
ATOM     52  O   ILE A   3     -35.888  64.251  21.299  0.00  0.00    -0.273 OA
BRANCH  49  53
ATOM     53  CA  ILE A   3     -36.106  65.522  19.324  0.00  0.00    +0.149 C 
BRANCH  53  55
ATOM     54  C   MET A   2     -35.372  64.407  17.345  0.00  0.00    +0.241 C 
ATOM     55  N   ILE A   3     -35.963  64.329  18.519  0.00  0.00    -0.297 N 
ATOM     56  H   ILE A   3     -36.324  63.417  18.865  0.00  0.00    +0.150 HD
ATOM     57  O   MET A   2     -34.909  65.453  16.910  0.00  0.00    -0.273 OA
BRANCH  54  58
ATOM     58  CA  MET A   2     -35.291  63.143  16.560  0.00  0.00    +0.149 C 
BRANCH  58  60
ATOM     59  C   LYS A   1     -36.580  62.657  14.520  0.00  0.00    +0.238 C 
ATOM     60  N   MET A   2     -35.619  63.326  15.128  0.00  0.00    -0.297 N 
ATOM     61  H   MET A   2     -35.067  64.013  14.576  0.00  0.00    +0.150 HD
ATOM     62  O   LYS A   1     -37.309  61.834  15.091  0.00  0.00    -0.274 OA
BRANCH  59  63
ATOM     63  CA  LYS A   1     -36.775  62.952  13.069  0.00  0.00    +0.145 C 
BRANCH  63  64
ATOM     64  N   LYS A   1     -37.518  61.879  12.451  0.00  0.00    -0.238 NA
ATOM     65  H   LYS A   1     -38.260  61.385  12.987  0.00  0.00    +0.142 HD
ENDBRANCH  63  64
BRANCH  63  66
ATOM     66  CB  LYS A   1     -37.535  64.239  12.878  0.00  0.00    +0.026 C 
BRANCH  66  67
ATOM     67  CG  LYS A   1     -36.900  65.360  13.569  0.00  0.00    -0.000 C 
BRANCH  67  68
ATOM     68  CD  LYS A   1     -37.493  66.668  13.165  0.00  0.00    -0.024 C 
BRANCH  68  69
ATOM     69  CE  LYS A   1     -37.477  67.576  14.353  0.00  0.00    -0.086 C 
BRANCH  69  70
ATOM     70  NZ  LYS A   1     -36.995  68.965  14.071  0.00  0.00    +0.380 N 
ATOM     71  HZ1 LYS A   1     -37.017  69.523  14.948  0.00  0.00    -0.089 HD
ATOM     72  HZ2 LYS A   1     -36.021  68.926  13.708  0.00  0.00    -0.089 HD
ATOM     73  HZ3 LYS A   1     -37.613  69.408  13.361  0.00  0.00    -0.089 HD
ENDBRANCH  69  70
ENDBRANCH  68  69
ENDBRANCH  67  68
ENDBRANCH  66  67
ENDBRANCH  63  66
ENDBRANCH  59  63
ENDBRANCH  58  60
BRANCH  58  74
ATOM     74  CB  MET A   2     -33.856  62.664  16.715  0.00  0.00    +0.041 C 
BRANCH  74  75
ATOM     75  CG  MET A   2     -33.655  61.212  16.363  0.00  0.00    +0.060 C 
BRANCH  75  76
ATOM     76  SD  MET A   2     -32.970  60.311  17.760  0.00  0.00    -0.139 S 
ATOM     77  CE  MET A   2     -32.641  58.714  17.016  0.00  0.00    +0.069 C 
ENDBRANCH  75  76
ENDBRANCH  74  75
ENDBRANCH  58  74
ENDBRANCH  54  58
ENDBRANCH  53  55
BRANCH  53  78
ATOM     78  CB  ILE A   3     -37.552  66.087  19.186  0.00  0.00    +0.027 C 
ATOM     79  CG2 ILE A   3     -37.770  66.357  17.751  0.00  0.00    +0.002 C 
BRANCH  78  80
ATOM     80  CG1 ILE A   3     -38.561  65.322  19.966  0.00  0.00    +0.002 C 
ATOM     81  CD1 ILE A   3     -39.982  65.798  19.764  0.00  0.00    +0.000 C 
ENDBRANCH  78  80
ENDBRANCH  53  78
ENDBRANCH  49  53
ENDBRANCH  48  50
ENDBRANCH  44  48
ENDBRANCH  43  45
ENDBRANCH   1  43
TORSDOF 36
REMARK  Name = ../refined-set-2016/2aqu/2aqu_pocket.pdb
REMARK  214 active torsions:
REMARK  status: ('A' for Active; 'I' for Inactive)
REMARK    1  A    between atoms: _1  and  _3
REMARK    2  A    between atoms: _3  and  _4
REMARK    3  A    between atoms: _3  and  _6
REMARK    4  A    between atoms: _6  and  _7
REMARK    5  A    between atoms: _7  and  _8
REMARK    6  A    between atoms: _8  and  _9
REMARK    7  A    between atoms: _18  and  _20
REMARK    8  A    between atoms: _20  and  _21
REMARK    9  A    between atoms: _20  and  _23
REMARK   10  A    between atoms: _23  and  _24
REMARK   11  A    between atoms: _27  and  _29
REMARK   12  A    between atoms: _29  and  _30
REMARK   13  A    between atoms: _29  and  _32
REMARK   14  A    between atoms: _32  and  _33
REMARK   15  A    between atoms: _36  and  _38
REMARK   16  A    between atoms: _38  and  _39
REMARK   17  A    between atoms: _38  and  _41
REMARK   18  A    between atoms: _41  and  _42
REMARK   19  A    between atoms: _45  and  _47
REMARK   20  A    between atoms: _47  and  _48
REMARK   21  A    between atoms: _47  and  _50
REMARK   22  A    between atoms: _50  and  _51
REMARK   23  A    between atoms: _54  and  _56
REMARK   24  A    between atoms: _56  and  _57
REMARK   25  A    between atoms: _59  and  _61
REMARK   26  A    between atoms: _61  and  _62
REMARK   27  A    between atoms: _65  and  _67
REMARK   28  A    between atoms: _67  and  _68
REMARK   29  A    between atoms: _67  and  _70
REMARK   30  A    between atoms: _70  and  _71
REMARK   31  A    between atoms: _74  and  _76
REMARK   32  A    between atoms: _76  and  _77
REMARK   33  A    between atoms: _76  and  _79
REMARK   34  A    between atoms: _79  and  _80
REMARK   35  A    between atoms: _83  and  _85
REMARK   36  A    between atoms: _85  and  _86
REMARK   37  A    between atoms: _85  and  _88
REMARK   38  A    between atoms: _88  and  _89
REMARK   39  A    between atoms: _92  and  _94
REMARK   40  A    between atoms: _94  and  _95
REMARK   41  A    between atoms: _94  and  _97
REMARK   42  A    between atoms: _100  and  _102
REMARK   43  A    between atoms: _102  and  _103
REMARK   44  A    between atoms: _102  and  _105
REMARK   45  A    between atoms: _105  and  _106
REMARK   46  A    between atoms: _106  and  _107
REMARK   47  A    between atoms: _107  and  _108
REMARK   48  A    between atoms: _108  and  _109
REMARK   49  A    between atoms: _113  and  _115
REMARK   50  A    between atoms: _115  and  _116
REMARK   51  A    between atoms: _115  and  _118
REMARK   52  A    between atoms: _118  and  _119
REMARK   53  A    between atoms: _122  and  _124
REMARK   54  A    between atoms: _124  and  _125
REMARK   55  A    between atoms: _127  and  _129
REMARK   56  A    between atoms: _129  and  _130
REMARK   57  A    between atoms: _132  and  _134
REMARK   58  A    between atoms: _134  and  _135
REMARK   59  A    between atoms: _134  and  _137
REMARK   60  A    between atoms: _137  and  _138
REMARK   61  A    between atoms: _141  and  _143
REMARK   62  A    between atoms: _143  and  _144
REMARK   63  A    between atoms: _146  and  _148
REMARK   64  A    between atoms: _148  and  _149
REMARK   65  A    between atoms: _151  and  _153
REMARK   66  A    between atoms: _153  and  _154
REMARK   67  A    between atoms: _153  and  _156
REMARK   68  A    between atoms: _156  and  _157
REMARK   69  A    between atoms: _163  and  _165
REMARK   70  A    between atoms: _165  and  _166
REMARK   71  A    between atoms: _165  and  _168
REMARK   72  A    between atoms: _168  and  _169
REMARK   73  A    between atoms: _172  and  _174
REMARK   74  A    between atoms: _174  and  _175
REMARK   75  A    between atoms: _174  and  _177
REMARK   76  A    between atoms: _177  and  _178
REMARK   77  A    between atoms: _182  and  _183
REMARK   78  A    between atoms: _188  and  _190
REMARK   79  A    between atoms: _190  and  _191
REMARK   80  A    between atoms: _190  and  _193
REMARK   81  A    between atoms: _193  and  _194
REMARK   82  A    between atoms: _198  and  _199
REMARK   83  A    between atoms: _204  and  _206
REMARK   84  A    between atoms: _206  and  _207
REMARK   85  A    between atoms: _206  and  _209
REMARK   86  A    between atoms: _212  and  _214
REMARK   87  A    between atoms: _214  and  _215
REMARK   88  A    between atoms: _214  and  _217
REMARK   89  A    between atoms: _217  and  _218
REMARK   90  A    between atoms: _223  and  _225
REMARK   91  A    between atoms: _225  and  _226
REMARK   92  A    between atoms: _225  and  _228
REMARK   93  A    between atoms: _228  and  _229
REMARK   94  A    between atoms: _232  and  _234
REMARK   95  A    between atoms: _234  and  _235
REMARK   96  A    between atoms: _234  and  _237
REMARK   97  A    between atoms: _237  and  _238
REMARK   98  A    between atoms: _241  and  _243
REMARK   99  A    between atoms: _243  and  _244
REMARK  100  A    between atoms: _246  and  _248
REMARK  101  A    between atoms: _248  and  _249
REMARK  102  A    between atoms: _248  and  _251
REMARK  103  A    between atoms: _251  and  _252
REMARK  104  A    between atoms: _252  and  _253
REMARK  105  A    between atoms: _253  and  _254
REMARK  106  A    between atoms: _263  and  _265
REMARK  107  A    between atoms: _265  and  _266
REMARK  108  A    between atoms: _265  and  _268
REMARK  109  A    between atoms: _268  and  _269
REMARK  110  A    between atoms: _269  and  _270
REMARK  111  A    between atoms: _270  and  _271
REMARK  112  A    between atoms: _280  and  _282
REMARK  113  A    between atoms: _282  and  _283
REMARK  114  A    between atoms: _282  and  _285
REMARK  115  A    between atoms: _285  and  _286
REMARK  116  A    between atoms: _289  and  _291
REMARK  117  A    between atoms: _291  and  _292
REMARK  118  A    between atoms: _291  and  _294
REMARK  119  A    between atoms: _294  and  _295
REMARK  120  A    between atoms: _298  and  _300
REMARK  121  A    between atoms: _300  and  _301
REMARK  122  A    between atoms: _300  and  _303
REMARK  123  A    between atoms: _303  and  _304
REMARK  124  A    between atoms: _307  and  _309
REMARK  125  A    between atoms: _309  and  _310
REMARK  126  A    between atoms: _309  and  _312
REMARK  127  A    between atoms: _312  and  _313
REMARK  128  A    between atoms: _316  and  _318
REMARK  129  A    between atoms: _318  and  _319
REMARK  130  A    between atoms: _321  and  _323
REMARK  131  A    between atoms: _323  and  _324
REMARK  132  A    between atoms: _327  and  _329
REMARK  133  A    between atoms: _329  and  _330
REMARK  134  A    between atoms: _329  and  _332
REMARK  135  A    between atoms: _332  and  _333
REMARK  136  A    between atoms: _336  and  _338
REMARK  137  A    between atoms: _338  and  _339
REMARK  138  A    between atoms: _338  and  _341
REMARK  139  A    between atoms: _341  and  _342
REMARK  140  A    between atoms: _345  and  _347
REMARK  141  A    between atoms: _347  and  _348
REMARK  142  A    between atoms: _347  and  _350
REMARK  143  A    between atoms: _350  and  _351
REMARK  144  A    between atoms: _354  and  _356
REMARK  145  A    between atoms: _356  and  _357
REMARK  146  A    between atoms: _356  and  _359
REMARK  147  A    between atoms: _362  and  _364
REMARK  148  A    between atoms: _364  and  _365
REMARK  149  A    between atoms: _364  and  _367
REMARK  150  A    between atoms: _367  and  _368
REMARK  151  A    between atoms: _368  and  _369
REMARK  152  A    between atoms: _369  and  _370
REMARK  153  A    between atoms: _370  and  _371
REMARK  154  A    between atoms: _375  and  _377
REMARK  155  A    between atoms: _377  and  _378
REMARK  156  A    between atoms: _377  and  _380
REMARK  157  A    between atoms: _380  and  _381
REMARK  158  A    between atoms: _381  and  _382
REMARK  159  A    between atoms: _384  and  _386
REMARK  160  A    between atoms: _386  and  _387
REMARK  161  A    between atoms: _386  and  _389
REMARK  162  A    between atoms: _389  and  _390
REMARK  163  A    between atoms: _393  and  _395
REMARK  164  A    between atoms: _395  and  _396
REMARK  165  A    between atoms: _398  and  _400
REMARK  166  A    between atoms: _400  and  _401
REMARK  167  A    between atoms: _403  and  _405
REMARK  168  A    between atoms: _405  and  _406
REMARK  169  A    between atoms: _405  and  _408
REMARK  170  A    between atoms: _408  and  _409
REMARK  171  A    between atoms: _412  and  _414
REMARK  172  A    between atoms: _414  and  _415
REMARK  173  A    between atoms: _417  and  _419
REMARK  174  A    between atoms: _419  and  _420
REMARK  175  A    between atoms: _422  and  _424
REMARK  176  A    between atoms: _424  and  _425
REMARK  177  A    between atoms: _424  and  _427
REMARK  178  A    between atoms: _427  and  _428
REMARK  179  A    between atoms: _434  and  _436
REMARK  180  A    between atoms: _436  and  _437
REMARK  181  A    between atoms: _436  and  _439
REMARK  182  A    between atoms: _439  and  _440
REMARK  183  A    between atoms: _443  and  _445
REMARK  184  A    between atoms: _445  and  _446
REMARK  185  A    between atoms: _445  and  _448
REMARK  186  A    between atoms: _448  and  _449
REMARK  187  A    between atoms: _452  and  _454
REMARK  188  A    between atoms: _454  and  _455
REMARK  189  A    between atoms: _454  and  _457
REMARK  190  A    between atoms: _457  and  _458
REMARK  191  A    between atoms: _462  and  _463
REMARK  192  A    between atoms: _468  and  _470
REMARK  193  A    between atoms: _470  and  _471
REMARK  194  A    between atoms: _470  and  _473
REMARK  195  A    between atoms: _476  and  _478
REMARK  196  A    between atoms: _478  and  _479
REMARK  197  A    between atoms: _478  and  _481
REMARK  198  A    between atoms: _481  and  _482
REMARK  199  A    between atoms: _487  and  _489
REMARK  200  A    between atoms: _489  and  _490
REMARK  201  A    between atoms: _489  and  _492
REMARK  202  A    between atoms: _492  and  _493
REMARK  203  A    between atoms: _496  and  _498
REMARK  204  A    between atoms: _498  and  _499
REMARK  205  A    between atoms: _498  and  _501
REMARK  206  A    between atoms: _501  and  _502
REMARK  207  A    between atoms: _505  and  _507
REMARK  208  A    between atoms: _507  and  _508
REMARK  209  A    between atoms: _510  and  _512
REMARK  210  A    between atoms: _512  and  _513
REMARK  211  A    between atoms: _512  and  _515
REMARK  212  A    between atoms: _515  and  _516
REMARK  213  A    between atoms: _516  and  _517
REMARK  214  A    between atoms: _517  and  _518
REMARK                            x       y       z     vdW  Elec       q    Type
REMARK                         _______ _______ _______ _____ _____    ______ ____
ROOT
ATOM      1  CA  LEU A   1     -44.558  65.886  15.141  0.00  0.00    +0.133 C 
ENDROOT
BRANCH   1   2
ATOM      2  N   LEU A   1     -45.312  67.095  14.969  0.00  0.00    -0.239 NA
ATOM      3  H   LEU A   1     -45.449  67.738  15.775  0.00  0.00    +0.142 HD
ENDBRANCH   1   2
BRANCH   1   4
ATOM      4  C   LEU A   1     -45.425  64.880  15.924  0.00  0.00    +0.224 C 
ATOM      5  O   LEU A   1     -46.227  65.233  16.822  0.00  0.00    -0.287 OA
ENDBRANCH   1   4
BRANCH   1   6
ATOM      6  CB  LEU A   1     -43.266  66.157  15.924  0.00  0.00    +0.025 C 
BRANCH   6   7
ATOM      7  CG  LEU A   1     -42.460  67.397  15.529  0.00  0.00    +0.002 C 
ATOM      8  CD2 LEU A   1     -41.307  67.526  16.542  0.00  0.00    +0.000 C 
ATOM      9  CD1 LEU A   1     -41.858  67.327  14.122  0.00  0.00    +0.000 C 
ENDBRANCH   6   7
ENDBRANCH   1   6
TORSDOF 4
REMARK  Name = ../refined-set-2016/2aqu/2aqu_pocket.pdb
REMARK  214 active torsions:
REMARK  status: ('A' for Active; 'I' for Inactive)
REMARK    1  A    between atoms: _1  and  _3
REMARK    2  A    between atoms: _3  and  _4
REMARK    3  A    between atoms: _3  and  _6
REMARK    4  A    between atoms: _6  and  _7
REMARK    5  A    between atoms: _7  and  _8
REMARK    6  A    between atoms: _8  and  _9
REMARK    7  A    between atoms: _18  and  _20
REMARK    8  A    between atoms: _20  and  _21
REMARK    9  A    between atoms: _20  and  _23
REMARK   10  A    between atoms: _23  and  _24
REMARK   11  A    between atoms: _27  and  _29
REMARK   12  A    between atoms: _29  and  _30
REMARK   13  A    between atoms: _29  and  _32
REMARK   14  A    between atoms: _32  and  _33
REMARK   15  A    between atoms: _36  and  _38
REMARK   16  A    between atoms: _38  and  _39
REMARK   17  A    between atoms: _38  and  _41
REMARK   18  A    between atoms: _41  and  _42
REMARK   19  A    between atoms: _45  and  _47
REMARK   20  A    between atoms: _47  and  _48
REMARK   21  A    between atoms: _47  and  _50
REMARK   22  A    between atoms: _50  and  _51
REMARK   23  A    between atoms: _54  and  _56
REMARK   24  A    between atoms: _56  and  _57
REMARK   25  A    between atoms: _59  and  _61
REMARK   26  A    between atoms: _61  and  _62
REMARK   27  A    between atoms: _65  and  _67
REMARK   28  A    between atoms: _67  and  _68
REMARK   29  A    between atoms: _67  and  _70
REMARK   30  A    between atoms: _70  and  _71
REMARK   31  A    between atoms: _74  and  _76
REMARK   32  A    between atoms: _76  and  _77
REMARK   33  A    between atoms: _76  and  _79
REMARK   34  A    between atoms: _79  and  _80
REMARK   35  A    between atoms: _83  and  _85
REMARK   36  A    between atoms: _85  and  _86
REMARK   37  A    between atoms: _85  and  _88
REMARK   38  A    between atoms: _88  and  _89
REMARK   39  A    between atoms: _92  and  _94
REMARK   40  A    between atoms: _94  and  _95
REMARK   41  A    between atoms: _94  and  _97
REMARK   42  A    between atoms: _100  and  _102
REMARK   43  A    between atoms: _102  and  _103
REMARK   44  A    between atoms: _102  and  _105
REMARK   45  A    between atoms: _105  and  _106
REMARK   46  A    between atoms: _106  and  _107
REMARK   47  A    between atoms: _107  and  _108
REMARK   48  A    between atoms: _108  and  _109
REMARK   49  A    between atoms: _113  and  _115
REMARK   50  A    between atoms: _115  and  _116
REMARK   51  A    between atoms: _115  and  _118
REMARK   52  A    between atoms: _118  and  _119
REMARK   53  A    between atoms: _122  and  _124
REMARK   54  A    between atoms: _124  and  _125
REMARK   55  A    between atoms: _127  and  _129
REMARK   56  A    between atoms: _129  and  _130
REMARK   57  A    between atoms: _132  and  _134
REMARK   58  A    between atoms: _134  and  _135
REMARK   59  A    between atoms: _134  and  _137
REMARK   60  A    between atoms: _137  and  _138
REMARK   61  A    between atoms: _141  and  _143
REMARK   62  A    between atoms: _143  and  _144
REMARK   63  A    between atoms: _146  and  _148
REMARK   64  A    between atoms: _148  and  _149
REMARK   65  A    between atoms: _151  and  _153
REMARK   66  A    between atoms: _153  and  _154
REMARK   67  A    between atoms: _153  and  _156
REMARK   68  A    between atoms: _156  and  _157
REMARK   69  A    between atoms: _163  and  _165
REMARK   70  A    between atoms: _165  and  _166
REMARK   71  A    between atoms: _165  and  _168
REMARK   72  A    between atoms: _168  and  _169
REMARK   73  A    between atoms: _172  and  _174
REMARK   74  A    between atoms: _174  and  _175
REMARK   75  A    between atoms: _174  and  _177
REMARK   76  A    between atoms: _177  and  _178
REMARK   77  A    between atoms: _182  and  _183
REMARK   78  A    between atoms: _188  and  _190
REMARK   79  A    between atoms: _190  and  _191
REMARK   80  A    between atoms: _190  and  _193
REMARK   81  A    between atoms: _193  and  _194
REMARK   82  A    between atoms: _198  and  _199
REMARK   83  A    between atoms: _204  and  _206
REMARK   84  A    between atoms: _206  and  _207
REMARK   85  A    between atoms: _206  and  _209
REMARK   86  A    between atoms: _212  and  _214
REMARK   87  A    between atoms: _214  and  _215
REMARK   88  A    between atoms: _214  and  _217
REMARK   89  A    between atoms: _217  and  _218
REMARK   90  A    between atoms: _223  and  _225
REMARK   91  A    between atoms: _225  and  _226
REMARK   92  A    between atoms: _225  and  _228
REMARK   93  A    between atoms: _228  and  _229
REMARK   94  A    between atoms: _232  and  _234
REMARK   95  A    between atoms: _234  and  _235
REMARK   96  A    between atoms: _234  and  _237
REMARK   97  A    between atoms: _237  and  _238
REMARK   98  A    between atoms: _241  and  _243
REMARK   99  A    between atoms: _243  and  _244
REMARK  100  A    between atoms: _246  and  _248
REMARK  101  A    between atoms: _248  and  _249
REMARK  102  A    between atoms: _248  and  _251
REMARK  103  A    between atoms: _251  and  _252
REMARK  104  A    between atoms: _252  and  _253
REMARK  105  A    between atoms: _253  and  _254
REMARK  106  A    between atoms: _263  and  _265
REMARK  107  A    between atoms: _265  and  _266
REMARK  108  A    between atoms: _265  and  _268
REMARK  109  A    between atoms: _268  and  _269
REMARK  110  A    between atoms: _269  and  _270
REMARK  111  A    between atoms: _270  and  _271
REMARK  112  A    between atoms: _280  and  _282
REMARK  113  A    between atoms: _282  and  _283
REMARK  114  A    between atoms: _282  and  _285
REMARK  115  A    between atoms: _285  and  _286
REMARK  116  A    between atoms: _289  and  _291
REMARK  117  A    between atoms: _291  and  _292
REMARK  118  A    between atoms: _291  and  _294
REMARK  119  A    between atoms: _294  and  _295
REMARK  120  A    between atoms: _298  and  _300
REMARK  121  A    between atoms: _300  and  _301
REMARK  122  A    between atoms: _300  and  _303
REMARK  123  A    between atoms: _303  and  _304
REMARK  124  A    between atoms: _307  and  _309
REMARK  125  A    between atoms: _309  and  _310
REMARK  126  A    between atoms: _309  and  _312
REMARK  127  A    between atoms: _312  and  _313
REMARK  128  A    between atoms: _316  and  _318
REMARK  129  A    between atoms: _318  and  _319
REMARK  130  A    between atoms: _321  and  _323
REMARK  131  A    between atoms: _323  and  _324
REMARK  132  A    between atoms: _327  and  _329
REMARK  133  A    between atoms: _329  and  _330
REMARK  134  A    between atoms: _329  and  _332
REMARK  135  A    between atoms: _332  and  _333
REMARK  136  A    between atoms: _336  and  _338
REMARK  137  A    between atoms: _338  and  _339
REMARK  138  A    between atoms: _338  and  _341
REMARK  139  A    between atoms: _341  and  _342
REMARK  140  A    between atoms: _345  and  _347
REMARK  141  A    between atoms: _347  and  _348
REMARK  142  A    between atoms: _347  and  _350
REMARK  143  A    between atoms: _350  and  _351
REMARK  144  A    between atoms: _354  and  _356
REMARK  145  A    between atoms: _356  and  _357
REMARK  146  A    between atoms: _356  and  _359
REMARK  147  A    between atoms: _362  and  _364
REMARK  148  A    between atoms: _364  and  _365
REMARK  149  A    between atoms: _364  and  _367
REMARK  150  A    between atoms: _367  and  _368
REMARK  151  A    between atoms: _368  and  _369
REMARK  152  A    between atoms: _369  and  _370
REMARK  153  A    between atoms: _370  and  _371
REMARK  154  A    between atoms: _375  and  _377
REMARK  155  A    between atoms: _377  and  _378
REMARK  156  A    between atoms: _377  and  _380
REMARK  157  A    between atoms: _380  and  _381
REMARK  158  A    between atoms: _381  and  _382
REMARK  159  A    between atoms: _384  and  _386
REMARK  160  A    between atoms: _386  and  _387
REMARK  161  A    between atoms: _386  and  _389
REMARK  162  A    between atoms: _389  and  _390
REMARK  163  A    between atoms: _393  and  _395
REMARK  164  A    between atoms: _395  and  _396
REMARK  165  A    between atoms: _398  and  _400
REMARK  166  A    between atoms: _400  and  _401
REMARK  167  A    between atoms: _403  and  _405
REMARK  168  A    between atoms: _405  and  _406
REMARK  169  A    between atoms: _405  and  _408
REMARK  170  A    between atoms: _408  and  _409
REMARK  171  A    between atoms: _412  and  _414
REMARK  172  A    between atoms: _414  and  _415
REMARK  173  A    between atoms: _417  and  _419
REMARK  174  A    between atoms: _419  and  _420
REMARK  175  A    between atoms: _422  and  _424
REMARK  176  A    between atoms: _424  and  _425
REMARK  177  A    between atoms: _424  and  _427
REMARK  178  A    between atoms: _427  and  _428
REMARK  179  A    between atoms: _434  and  _436
REMARK  180  A    between atoms: _436  and  _437
REMARK  181  A    between atoms: _436  and  _439
REMARK  182  A    between atoms: _439  and  _440
REMARK  183  A    between atoms: _443  and  _445
REMARK  184  A    between atoms: _445  and  _446
REMARK  185  A    between atoms: _445  and  _448
REMARK  186  A    between atoms: _448  and  _449
REMARK  187  A    between atoms: _452  and  _454
REMARK  188  A    between atoms: _454  and  _455
REMARK  189  A    between atoms: _454  and  _457
REMARK  190  A    between atoms: _457  and  _458
REMARK  191  A    between atoms: _462  and  _463
REMARK  192  A    between atoms: _468  and  _470
REMARK  193  A    between atoms: _470  and  _471
REMARK  194  A    between atoms: _470  and  _473
REMARK  195  A    between atoms: _476  and  _478
REMARK  196  A    between atoms: _478  and  _479
REMARK  197  A    between atoms: _478  and  _481
REMARK  198  A    between atoms: _481  and  _482
REMARK  199  A    between atoms: _487  and  _489
REMARK  200  A    between atoms: _489  and  _490
REMARK  201  A    between atoms: _489  and  _492
REMARK  202  A    between atoms: _492  and  _493
REMARK  203  A    between atoms: _496  and  _498
REMARK  204  A    between atoms: _498  and  _499
REMARK  205  A    between atoms: _498  and  _501
REMARK  206  A    between atoms: _501  and  _502
REMARK  207  A    between atoms: _505  and  _507
REMARK  208  A    between atoms: _507  and  _508
REMARK  209  A    between atoms: _510  and  _512
REMARK  210  A    between atoms: _512  and  _513
REMARK  211  A    between atoms: _512  and  _515
REMARK  212  A    between atoms: _515  and  _516
REMARK  213  A    between atoms: _516  and  _517
REMARK  214  A    between atoms: _517  and  _518
REMARK                            x       y       z     vdW  Elec       q    Type
REMARK                         _______ _______ _______ _____ _____    ______ ____
ROOT
ATOM      1  CA  ILE A   5     -47.670  69.548  23.393  0.00  0.00    +0.149 C 
ENDROOT
BRANCH   1   4
ATOM      2  C   ASN A   4     -49.215  67.770  24.008  0.00  0.00    +0.241 C 
ATOM      3  O   ASN A   4     -49.652  68.408  24.972  0.00  0.00    -0.273 OA
ATOM      4  N   ILE A   5     -48.291  68.252  23.178  0.00  0.00    -0.297 N 
ATOM      5  H   ILE A   5     -48.006  67.685  22.354  0.00  0.00    +0.150 HD
BRANCH   2   6
ATOM      6  CA  ASN A   4     -49.774  66.383  23.699  0.00  0.00    +0.158 C 
BRANCH   6   8
ATOM      7  C   VAL A   3     -48.636  65.166  25.403  0.00  0.00    +0.241 C 
ATOM      8  N   ASN A   4     -49.782  65.598  24.929  0.00  0.00    -0.297 N 
ATOM      9  H   ASN A   4     -50.674  65.386  25.419  0.00  0.00    +0.150 HD
ATOM     10  O   VAL A   3     -47.583  65.406  24.839  0.00  0.00    -0.273 OA
BRANCH   7  11
ATOM     11  CA  VAL A   3     -48.657  64.361  26.680  0.00  0.00    +0.149 C 
BRANCH  11  14
ATOM     12  C   PRO A   2     -47.596  62.294  27.410  0.00  0.00    +0.241 C 
ATOM     13  O   PRO A   2     -48.582  61.979  28.066  0.00  0.00    -0.273 OA
ATOM     14  N   VAL A   3     -47.561  63.386  26.651  0.00  0.00    -0.297 N 
ATOM     15  H   VAL A   3     -46.745  63.551  26.028  0.00  0.00    +0.150 HD
BRANCH  12  18
ATOM     16  C   THR A   1     -45.660  61.415  25.120  0.00  0.00    +0.244 C 
ATOM     17  N   PRO A   2     -45.384  61.704  26.369  0.00  0.00    -0.272 N 
ATOM     18  CA  PRO A   2     -46.346  61.404  27.432  0.00  0.00    +0.152 C 
ATOM     19  CB  PRO A   2     -45.572  61.685  28.716  0.00  0.00    +0.031 C 
ATOM     20  CG  PRO A   2     -44.169  61.660  28.318  0.00  0.00    +0.024 C 
ATOM     21  CD  PRO A   2     -44.130  62.222  26.932  0.00  0.00    +0.094 C 
ATOM     22  O   THR A   1     -46.733  60.915  24.801  0.00  0.00    -0.273 OA
BRANCH  16  23
ATOM     23  CA  THR A   1     -44.632  61.752  24.053  0.00  0.00    +0.172 C 
BRANCH  23  24
ATOM     24  N   THR A   1     -44.655  60.715  23.037  0.00  0.00    -0.236 NA
ATOM     25  H   THR A   1     -45.295  60.819  22.224  0.00  0.00    +0.142 HD
ENDBRANCH  23  24
BRANCH  23  26
ATOM     26  CB  THR A   1     -44.926  63.077  23.418  0.00  0.00    +0.135 C 
ATOM     27  CG2 THR A   1     -46.250  63.021  22.624  0.00  0.00    +0.034 C 
BRANCH  26  28
ATOM     28  OG1 THR A   1     -45.014  64.046  24.446  0.00  0.00    -0.383 OA
ATOM     29  HG1 THR A   1     -45.741  63.797  25.071  0.00  0.00    +0.210 HD
ENDBRANCH  26  28
ENDBRANCH  23  26
ENDBRANCH  16  23
ENDBRANCH  12  18
ENDBRANCH  11  14
BRANCH  11  30
ATOM     30  CB  VAL A   3     -48.394  65.327  27.880  0.00  0.00    +0.027 C 
ATOM     31  CG2 VAL A   3     -49.413  66.499  27.891  0.00  0.00    +0.002 C 
ATOM     32  CG1 VAL A   3     -46.897  65.873  27.792  0.00  0.00    +0.002 C 
ENDBRANCH  11  30
ENDBRANCH   7  11
ENDBRANCH   6   8
BRANCH   6  33
ATOM     33  CB  ASN A   4     -51.181  66.469  23.134  0.00  0.00    +0.114 C 
BRANCH  33  34
ATOM     34  CG  ASN A   4     -51.790  65.083  22.861  0.00  0.00    +0.222 C 
ATOM     35  ND2 ASN A   4     -53.042  64.906  23.243  0.00  0.00    -0.329 N 
ATOM     36 HD21 ASN A   4     -53.558  65.679  23.709  0.00  0.00    +0.145 HD
ATOM     37 HD22 ASN A   4     -53.512  63.993  23.077  0.00  0.00    +0.145 HD
ATOM     38  OD1 ASN A   4     -51.138  64.197  22.305  0.00  0.00    -0.275 OA
ENDBRANCH  33  34
ENDBRANCH   6  33
ENDBRANCH   2   6
ENDBRANCH   1   4
BRANCH   1  39
ATOM     39  C   ILE A   5     -47.823  70.505  22.233  0.00  0.00    +0.241 C 
ATOM     40  N   ILE A   6     -48.258  71.721  22.525  0.00  0.00    -0.297 N 
ATOM     41  H   ILE A   6     -48.516  71.965  23.503  0.00  0.00    +0.150 HD
ATOM     42  O   ILE A   5     -47.553  70.144  21.062  0.00  0.00    -0.273 OA
BRANCH  40  43
ATOM     43  CA  ILE A   6     -48.374  72.727  21.452  0.00  0.00    +0.149 C 
BRANCH  43  44
ATOM     44  C   ILE A   6     -47.198  73.666  21.675  0.00  0.00    +0.241 C 
ATOM     45  O   ILE A   6     -47.156  74.392  22.667  0.00  0.00    -0.273 OA
ATOM     46  N   GLY A   7     -46.244  73.626  20.750  0.00  0.00    -0.295 N 
ATOM     47  H   GLY A   7     -46.366  73.005  19.925  0.00  0.00    +0.150 HD
BRANCH  46  48
ATOM     48  CA  GLY A   7     -45.026  74.432  20.860  0.00  0.00    +0.176 C 
BRANCH  48  49
ATOM     49  C   GLY A   7     -45.069  75.827  20.247  0.00  0.00    +0.243 C 
ATOM     50  N   ARG A   8     -43.981  76.567  20.428  0.00  0.00    -0.298 N 
ATOM     51  H   ARG A   8     -43.166  76.170  20.938  0.00  0.00    +0.150 HD
ATOM     52  O   GLY A   7     -46.075  76.240  19.644  0.00  0.00    -0.273 OA
BRANCH  50  53
ATOM     53  CA  ARG A   8     -43.919  77.938  19.915  0.00  0.00    +0.137 C 
BRANCH  53  54
ATOM     54  C   ARG A   8     -44.149  78.061  18.401  0.00  0.00    +0.227 C 
ATOM     55  O   ARG A   8     -44.681  79.072  17.927  0.00  0.00    -0.286 OA
ENDBRANCH  53  54
BRANCH  53  56
ATOM     56  CB  ARG A   8     -42.582  78.612  20.285  0.00  0.00    +0.031 C 
BRANCH  56  57
ATOM     57  CG  ARG A   8     -42.395  78.808  21.804  0.00  0.00    +0.045 C 
BRANCH  57  58
ATOM     58  CD  ARG A   8     -41.115  79.581  22.152  0.00  0.00    +0.174 C 
BRANCH  58  59
ATOM     59  NE  ARG A   8     -39.917  78.924  21.633  0.00  0.00    -0.265 N 
ATOM     60  HE  ARG A   8     -39.509  78.139  22.179  0.00  0.00    +0.259 HD
ATOM     61  CZ  ARG A   8     -39.323  79.278  20.500  0.00  0.00    +0.342 C 
ATOM     62  NH2 ARG A   8     -38.227  78.659  20.081  0.00  0.00    -0.292 N 
ATOM     63 HH21 ARG A   8     -37.821  77.884  20.643  0.00  0.00    +0.255 HD
ATOM     64 HH22 ARG A   8     -37.774  78.949  19.191  0.00  0.00    +0.255 HD
ATOM     65  NH1 ARG A   8     -39.811  80.288  19.773  0.00  0.00    -0.292 N 
ATOM     66 HH11 ARG A   8     -40.658  80.799  20.095  0.00  0.00    +0.255 HD
ATOM     67 HH12 ARG A   8     -39.344  80.563  18.886  0.00  0.00    +0.255 HD
ENDBRANCH  58  59
ENDBRANCH  57  58
ENDBRANCH  56  57
ENDBRANCH  53  56
ENDBRANCH  50  53
ENDBRANCH  48  49
ENDBRANCH  46  48
ENDBRANCH  43  44
BRANCH  43  68
ATOM     68  CB  ILE A   6     -49.618  73.552  21.549  0.00  0.00    +0.027 C 
ATOM     69  CG2 ILE A   6     -49.683  74.562  20.362  0.00  0.00    +0.002 C 
BRANCH  68  70
ATOM     70  CG1 ILE A   6     -50.847  72.637  21.508  0.00  0.00    +0.002 C 
ATOM     71  CD1 ILE A   6     -50.972  71.783  20.243  0.00  0.00    +0.000 C 
ENDBRANCH  68  70
ENDBRANCH  43  68
ENDBRANCH  40  43
ENDBRANCH   1  39
BRANCH   1  72
ATOM     72  CB  ILE A   5     -46.181  69.378  23.618  0.00  0.00    +0.027 C 
ATOM     73  CG2 ILE A   5     -45.459  70.735  23.587  0.00  0.00    +0.002 C 
BRANCH  72  74
ATOM     74  CG1 ILE A   5     -46.004  68.690  24.953  0.00  0.00    +0.002 C 
ATOM     75  CD1 ILE A   5     -44.676  68.027  25.131  0.00  0.00    +0.000 C 
ENDBRANCH  72  74
ENDBRANCH   1  72
TORSDOF 28
REMARK  Name = ../refined-set-2016/2aqu/2aqu_pocket.pdb
REMARK  214 active torsions:
REMARK  status: ('A' for Active; 'I' for Inactive)
REMARK    1  A    between atoms: _1  and  _3
REMARK    2  A    between atoms: _3  and  _4
REMARK    3  A    between atoms: _3  and  _6
REMARK    4  A    between atoms: _6  and  _7
REMARK    5  A    between atoms: _7  and  _8
REMARK    6  A    between atoms: _8  and  _9
REMARK    7  A    between atoms: _18  and  _20
REMARK    8  A    between atoms: _20  and  _21
REMARK    9  A    between atoms: _20  and  _23
REMARK   10  A    between atoms: _23  and  _24
REMARK   11  A    between atoms: _27  and  _29
REMARK   12  A    between atoms: _29  and  _30
REMARK   13  A    between atoms: _29  and  _32
REMARK   14  A    between atoms: _32  and  _33
REMARK   15  A    between atoms: _36  and  _38
REMARK   16  A    between atoms: _38  and  _39
REMARK   17  A    between atoms: _38  and  _41
REMARK   18  A    between atoms: _41  and  _42
REMARK   19  A    between atoms: _45  and  _47
REMARK   20  A    between atoms: _47  and  _48
REMARK   21  A    between atoms: _47  and  _50
REMARK   22  A    between atoms: _50  and  _51
REMARK   23  A    between atoms: _54  and  _56
REMARK   24  A    between atoms: _56  and  _57
REMARK   25  A    between atoms: _59  and  _61
REMARK   26  A    between atoms: _61  and  _62
REMARK   27  A    between atoms: _65  and  _67
REMARK   28  A    between atoms: _67  and  _68
REMARK   29  A    between atoms: _67  and  _70
REMARK   30  A    between atoms: _70  and  _71
REMARK   31  A    between atoms: _74  and  _76
REMARK   32  A    between atoms: _76  and  _77
REMARK   33  A    between atoms: _76  and  _79
REMARK   34  A    between atoms: _79  and  _80
REMARK   35  A    between atoms: _83  and  _85
REMARK   36  A    between atoms: _85  and  _86
REMARK   37  A    between atoms: _85  and  _88
REMARK   38  A    between atoms: _88  and  _89
REMARK   39  A    between atoms: _92  and  _94
REMARK   40  A    between atoms: _94  and  _95
REMARK   41  A    between atoms: _94  and  _97
REMARK   42  A    between atoms: _100  and  _102
REMARK   43  A    between atoms: _102  and  _103
REMARK   44  A    between atoms: _102  and  _105
REMARK   45  A    between atoms: _105  and  _106
REMARK   46  A    between atoms: _106  and  _107
REMARK   47  A    between atoms: _107  and  _108
REMARK   48  A    between atoms: _108  and  _109
REMARK   49  A    between atoms: _113  and  _115
REMARK   50  A    between atoms: _115  and  _116
REMARK   51  A    between atoms: _115  and  _118
REMARK   52  A    between atoms: _118  and  _119
REMARK   53  A    between atoms: _122  and  _124
REMARK   54  A    between atoms: _124  and  _125
REMARK   55  A    between atoms: _127  and  _129
REMARK   56  A    between atoms: _129  and  _130
REMARK   57  A    between atoms: _132  and  _134
REMARK   58  A    between atoms: _134  and  _135
REMARK   59  A    between atoms: _134  and  _137
REMARK   60  A    between atoms: _137  and  _138
REMARK   61  A    between atoms: _141  and  _143
REMARK   62  A    between atoms: _143  and  _144
REMARK   63  A    between atoms: _146  and  _148
REMARK   64  A    between atoms: _148  and  _149
REMARK   65  A    between atoms: _151  and  _153
REMARK   66  A    between atoms: _153  and  _154
REMARK   67  A    between atoms: _153  and  _156
REMARK   68  A    between atoms: _156  and  _157
REMARK   69  A    between atoms: _163  and  _165
REMARK   70  A    between atoms: _165  and  _166
REMARK   71  A    between atoms: _165  and  _168
REMARK   72  A    between atoms: _168  and  _169
REMARK   73  A    between atoms: _172  and  _174
REMARK   74  A    between atoms: _174  and  _175
REMARK   75  A    between atoms: _174  and  _177
REMARK   76  A    between atoms: _177  and  _178
REMARK   77  A    between atoms: _182  and  _183
REMARK   78  A    between atoms: _188  and  _190
REMARK   79  A    between atoms: _190  and  _191
REMARK   80  A    between atoms: _190  and  _193
REMARK   81  A    between atoms: _193  and  _194
REMARK   82  A    between atoms: _198  and  _199
REMARK   83  A    between atoms: _204  and  _206
REMARK   84  A    between atoms: _206  and  _207
REMARK   85  A    between atoms: _206  and  _209
REMARK   86  A    between atoms: _212  and  _214
REMARK   87  A    between atoms: _214  and  _215
REMARK   88  A    between atoms: _214  and  _217
REMARK   89  A    between atoms: _217  and  _218
REMARK   90  A    between atoms: _223  and  _225
REMARK   91  A    between atoms: _225  and  _226
REMARK   92  A    between atoms: _225  and  _228
REMARK   93  A    between atoms: _228  and  _229
REMARK   94  A    between atoms: _232  and  _234
REMARK   95  A    between atoms: _234  and  _235
REMARK   96  A    between atoms: _234  and  _237
REMARK   97  A    between atoms: _237  and  _238
REMARK   98  A    between atoms: _241  and  _243
REMARK   99  A    between atoms: _243  and  _244
REMARK  100  A    between atoms: _246  and  _248
REMARK  101  A    between atoms: _248  and  _249
REMARK  102  A    between atoms: _248  and  _251
REMARK  103  A    between atoms: _251  and  _252
REMARK  104  A    between atoms: _252  and  _253
REMARK  105  A    between atoms: _253  and  _254
REMARK  106  A    between atoms: _263  and  _265
REMARK  107  A    between atoms: _265  and  _266
REMARK  108  A    between atoms: _265  and  _268
REMARK  109  A    between atoms: _268  and  _269
REMARK  110  A    between atoms: _269  and  _270
REMARK  111  A    between atoms: _270  and  _271
REMARK  112  A    between atoms: _280  and  _282
REMARK  113  A    between atoms: _282  and  _283
REMARK  114  A    between atoms: _282  and  _285
REMARK  115  A    between atoms: _285  and  _286
REMARK  116  A    between atoms: _289  and  _291
REMARK  117  A    between atoms: _291  and  _292
REMARK  118  A    between atoms: _291  and  _294
REMARK  119  A    between atoms: _294  and  _295
REMARK  120  A    between atoms: _298  and  _300
REMARK  121  A    between atoms: _300  and  _301
REMARK  122  A    between atoms: _300  and  _303
REMARK  123  A    between atoms: _303  and  _304
REMARK  124  A    between atoms: _307  and  _309
REMARK  125  A    between atoms: _309  and  _310
REMARK  126  A    between atoms: _309  and  _312
REMARK  127  A    between atoms: _312  and  _313
REMARK  128  A    between atoms: _316  and  _318
REMARK  129  A    between atoms: _318  and  _319
REMARK  130  A    between atoms: _321  and  _323
REMARK  131  A    between atoms: _323  and  _324
REMARK  132  A    between atoms: _327  and  _329
REMARK  133  A    between atoms: _329  and  _330
REMARK  134  A    between atoms: _329  and  _332
REMARK  135  A    between atoms: _332  and  _333
REMARK  136  A    between atoms: _336  and  _338
REMARK  137  A    between atoms: _338  and  _339
REMARK  138  A    between atoms: _338  and  _341
REMARK  139  A    between atoms: _341  and  _342
REMARK  140  A    between atoms: _345  and  _347
REMARK  141  A    between atoms: _347  and  _348
REMARK  142  A    between atoms: _347  and  _350
REMARK  143  A    between atoms: _350  and  _351
REMARK  144  A    between atoms: _354  and  _356
REMARK  145  A    between atoms: _356  and  _357
REMARK  146  A    between atoms: _356  and  _359
REMARK  147  A    between atoms: _362  and  _364
REMARK  148  A    between atoms: _364  and  _365
REMARK  149  A    between atoms: _364  and  _367
REMARK  150  A    between atoms: _367  and  _368
REMARK  151  A    between atoms: _368  and  _369
REMARK  152  A    between atoms: _369  and  _370
REMARK  153  A    between atoms: _370  and  _371
REMARK  154  A    between atoms: _375  and  _377
REMARK  155  A    between atoms: _377  and  _378
REMARK  156  A    between atoms: _377  and  _380
REMARK  157  A    between atoms: _380  and  _381
REMARK  158  A    between atoms: _381  and  _382
REMARK  159  A    between atoms: _384  and  _386
REMARK  160  A    between atoms: _386  and  _387
REMARK  161  A    between atoms: _386  and  _389
REMARK  162  A    between atoms: _389  and  _390
REMARK  163  A    between atoms: _393  and  _395
REMARK  164  A    between atoms: _395  and  _396
REMARK  165  A    between atoms: _398  and  _400
REMARK  166  A    between atoms: _400  and  _401
REMARK  167  A    between atoms: _403  and  _405
REMARK  168  A    between atoms: _405  and  _406
REMARK  169  A    between atoms: _405  and  _408
REMARK  170  A    between atoms: _408  and  _409
REMARK  171  A    between atoms: _412  and  _414
REMARK  172  A    between atoms: _414  and  _415
REMARK  173  A    between atoms: _417  and  _419
REMARK  174  A    between atoms: _419  and  _420
REMARK  175  A    between atoms: _422  and  _424
REMARK  176  A    between atoms: _424  and  _425
REMARK  177  A    between atoms: _424  and  _427
REMARK  178  A    between atoms: _427  and  _428
REMARK  179  A    between atoms: _434  and  _436
REMARK  180  A    between atoms: _436  and  _437
REMARK  181  A    between atoms: _436  and  _439
REMARK  182  A    between atoms: _439  and  _440
REMARK  183  A    between atoms: _443  and  _445
REMARK  184  A    between atoms: _445  and  _446
REMARK  185  A    between atoms: _445  and  _448
REMARK  186  A    between atoms: _448  and  _449
REMARK  187  A    between atoms: _452  and  _454
REMARK  188  A    between atoms: _454  and  _455
REMARK  189  A    between atoms: _454  and  _457
REMARK  190  A    between atoms: _457  and  _458
REMARK  191  A    between atoms: _462  and  _463
REMARK  192  A    between atoms: _468  and  _470
REMARK  193  A    between atoms: _470  and  _471
REMARK  194  A    between atoms: _470  and  _473
REMARK  195  A    between atoms: _476  and  _478
REMARK  196  A    between atoms: _478  and  _479
REMARK  197  A    between atoms: _478  and  _481
REMARK  198  A    between atoms: _481  and  _482
REMARK  199  A    between atoms: _487  and  _489
REMARK  200  A    between atoms: _489  and  _490
REMARK  201  A    between atoms: _489  and  _492
REMARK  202  A    between atoms: _492  and  _493
REMARK  203  A    between atoms: _496  and  _498
REMARK  204  A    between atoms: _498  and  _499
REMARK  205  A    between atoms: _498  and  _501
REMARK  206  A    between atoms: _501  and  _502
REMARK  207  A    between atoms: _505  and  _507
REMARK  208  A    between atoms: _507  and  _508
REMARK  209  A    between atoms: _510  and  _512
REMARK  210  A    between atoms: _512  and  _513
REMARK  211  A    between atoms: _512  and  _515
REMARK  212  A    between atoms: _515  and  _516
REMARK  213  A    between atoms: _516  and  _517
REMARK  214  A    between atoms: _517  and  _518
REMARK                            x       y       z     vdW  Elec       q    Type
REMARK                         _______ _______ _______ _____ _____    ______ ____
ROOT
ATOM      1  O   HOH     1     -47.646  72.821  32.910  0.00  0.00    +0.000 OA
ENDROOT
TORSDOF 0
REMARK  Name = ../refined-set-2016/2aqu/2aqu_pocket.pdb
REMARK  214 active torsions:
REMARK  status: ('A' for Active; 'I' for Inactive)
REMARK    1  A    between atoms: _1  and  _3
REMARK    2  A    between atoms: _3  and  _4
REMARK    3  A    between atoms: _3  and  _6
REMARK    4  A    between atoms: _6  and  _7
REMARK    5  A    between atoms: _7  and  _8
REMARK    6  A    between atoms: _8  and  _9
REMARK    7  A    between atoms: _18  and  _20
REMARK    8  A    between atoms: _20  and  _21
REMARK    9  A    between atoms: _20  and  _23
REMARK   10  A    between atoms: _23  and  _24
REMARK   11  A    between atoms: _27  and  _29
REMARK   12  A    between atoms: _29  and  _30
REMARK   13  A    between atoms: _29  and  _32
REMARK   14  A    between atoms: _32  and  _33
REMARK   15  A    between atoms: _36  and  _38
REMARK   16  A    between atoms: _38  and  _39
REMARK   17  A    between atoms: _38  and  _41
REMARK   18  A    between atoms: _41  and  _42
REMARK   19  A    between atoms: _45  and  _47
REMARK   20  A    between atoms: _47  and  _48
REMARK   21  A    between atoms: _47  and  _50
REMARK   22  A    between atoms: _50  and  _51
REMARK   23  A    between atoms: _54  and  _56
REMARK   24  A    between atoms: _56  and  _57
REMARK   25  A    between atoms: _59  and  _61
REMARK   26  A    between atoms: _61  and  _62
REMARK   27  A    between atoms: _65  and  _67
REMARK   28  A    between atoms: _67  and  _68
REMARK   29  A    between atoms: _67  and  _70
REMARK   30  A    between atoms: _70  and  _71
REMARK   31  A    between atoms: _74  and  _76
REMARK   32  A    between atoms: _76  and  _77
REMARK   33  A    between atoms: _76  and  _79
REMARK   34  A    between atoms: _79  and  _80
REMARK   35  A    between atoms: _83  and  _85
REMARK   36  A    between atoms: _85  and  _86
REMARK   37  A    between atoms: _85  and  _88
REMARK   38  A    between atoms: _88  and  _89
REMARK   39  A    between atoms: _92  and  _94
REMARK   40  A    between atoms: _94  and  _95
REMARK   41  A    between atoms: _94  and  _97
REMARK   42  A    between atoms: _100  and  _102
REMARK   43  A    between atoms: _102  and  _103
REMARK   44  A    between atoms: _102  and  _105
REMARK   45  A    between atoms: _105  and  _106
REMARK   46  A    between atoms: _106  and  _107
REMARK   47  A    between atoms: _107  and  _108
REMARK   48  A    between atoms: _108  and  _109
REMARK   49  A    between atoms: _113  and  _115
REMARK   50  A    between atoms: _115  and  _116
REMARK   51  A    between atoms: _115  and  _118
REMARK   52  A    between atoms: _118  and  _119
REMARK   53  A    between atoms: _122  and  _124
REMARK   54  A    between atoms: _124  and  _125
REMARK   55  A    between atoms: _127  and  _129
REMARK   56  A    between atoms: _129  and  _130
REMARK   57  A    between atoms: _132  and  _134
REMARK   58  A    between atoms: _134  and  _135
REMARK   59  A    between atoms: _134  and  _137
REMARK   60  A    between atoms: _137  and  _138
REMARK   61  A    between atoms: _141  and  _143
REMARK   62  A    between atoms: _143  and  _144
REMARK   63  A    between atoms: _146  and  _148
REMARK   64  A    between atoms: _148  and  _149
REMARK   65  A    between atoms: _151  and  _153
REMARK   66  A    between atoms: _153  and  _154
REMARK   67  A    between atoms: _153  and  _156
REMARK   68  A    between atoms: _156  and  _157
REMARK   69  A    between atoms: _163  and  _165
REMARK   70  A    between atoms: _165  and  _166
REMARK   71  A    between atoms: _165  and  _168
REMARK   72  A    between atoms: _168  and  _169
REMARK   73  A    between atoms: _172  and  _174
REMARK   74  A    between atoms: _174  and  _175
REMARK   75  A    between atoms: _174  and  _177
REMARK   76  A    between atoms: _177  and  _178
REMARK   77  A    between atoms: _182  and  _183
REMARK   78  A    between atoms: _188  and  _190
REMARK   79  A    between atoms: _190  and  _191
REMARK   80  A    between atoms: _190  and  _193
REMARK   81  A    between atoms: _193  and  _194
REMARK   82  A    between atoms: _198  and  _199
REMARK   83  A    between atoms: _204  and  _206
REMARK   84  A    between atoms: _206  and  _207
REMARK   85  A    between atoms: _206  and  _209
REMARK   86  A    between atoms: _212  and  _214
REMARK   87  A    between atoms: _214  and  _215
REMARK   88  A    between atoms: _214  and  _217
REMARK   89  A    between atoms: _217  and  _218
REMARK   90  A    between atoms: _223  and  _225
REMARK   91  A    between atoms: _225  and  _226
REMARK   92  A    between atoms: _225  and  _228
REMARK   93  A    between atoms: _228  and  _229
REMARK   94  A    between atoms: _232  and  _234
REMARK   95  A    between atoms: _234  and  _235
REMARK   96  A    between atoms: _234  and  _237
REMARK   97  A    between atoms: _237  and  _238
REMARK   98  A    between atoms: _241  and  _243
REMARK   99  A    between atoms: _243  and  _244
REMARK  100  A    between atoms: _246  and  _248
REMARK  101  A    between atoms: _248  and  _249
REMARK  102  A    between atoms: _248  and  _251
REMARK  103  A    between atoms: _251  and  _252
REMARK  104  A    between atoms: _252  and  _253
REMARK  105  A    between atoms: _253  and  _254
REMARK  106  A    between atoms: _263  and  _265
REMARK  107  A    between atoms: _265  and  _266
REMARK  108  A    between atoms: _265  and  _268
REMARK  109  A    between atoms: _268  and  _269
REMARK  110  A    between atoms: _269  and  _270
REMARK  111  A    between atoms: _270  and  _271
REMARK  112  A    between atoms: _280  and  _282
REMARK  113  A    between atoms: _282  and  _283
REMARK  114  A    between atoms: _282  and  _285
REMARK  115  A    between atoms: _285  and  _286
REMARK  116  A    between atoms: _289  and  _291
REMARK  117  A    between atoms: _291  and  _292
REMARK  118  A    between atoms: _291  and  _294
REMARK  119  A    between atoms: _294  and  _295
REMARK  120  A    between atoms: _298  and  _300
REMARK  121  A    between atoms: _300  and  _301
REMARK  122  A    between atoms: _300  and  _303
REMARK  123  A    between atoms: _303  and  _304
REMARK  124  A    between atoms: _307  and  _309
REMARK  125  A    between atoms: _309  and  _310
REMARK  126  A    between atoms: _309  and  _312
REMARK  127  A    between atoms: _312  and  _313
REMARK  128  A    between atoms: _316  and  _318
REMARK  129  A    between atoms: _318  and  _319
REMARK  130  A    between atoms: _321  and  _323
REMARK  131  A    between atoms: _323  and  _324
REMARK  132  A    between atoms: _327  and  _329
REMARK  133  A    between atoms: _329  and  _330
REMARK  134  A    between atoms: _329  and  _332
REMARK  135  A    between atoms: _332  and  _333
REMARK  136  A    between atoms: _336  and  _338
REMARK  137  A    between atoms: _338  and  _339
REMARK  138  A    between atoms: _338  and  _341
REMARK  139  A    between atoms: _341  and  _342
REMARK  140  A    between atoms: _345  and  _347
REMARK  141  A    between atoms: _347  and  _348
REMARK  142  A    between atoms: _347  and  _350
REMARK  143  A    between atoms: _350  and  _351
REMARK  144  A    between atoms: _354  and  _356
REMARK  145  A    between atoms: _356  and  _357
REMARK  146  A    between atoms: _356  and  _359
REMARK  147  A    between atoms: _362  and  _364
REMARK  148  A    between atoms: _364  and  _365
REMARK  149  A    between atoms: _364  and  _367
REMARK  150  A    between atoms: _367  and  _368
REMARK  151  A    between atoms: _368  and  _369
REMARK  152  A    between atoms: _369  and  _370
REMARK  153  A    between atoms: _370  and  _371
REMARK  154  A    between atoms: _375  and  _377
REMARK  155  A    between atoms: _377  and  _378
REMARK  156  A    between atoms: _377  and  _380
REMARK  157  A    between atoms: _380  and  _381
REMARK  158  A    between atoms: _381  and  _382
REMARK  159  A    between atoms: _384  and  _386
REMARK  160  A    between atoms: _386  and  _387
REMARK  161  A    between atoms: _386  and  _389
REMARK  162  A    between atoms: _389  and  _390
REMARK  163  A    between atoms: _393  and  _395
REMARK  164  A    between atoms: _395  and  _396
REMARK  165  A    between atoms: _398  and  _400
REMARK  166  A    between atoms: _400  and  _401
REMARK  167  A    between atoms: _403  and  _405
REMARK  168  A    between atoms: _405  and  _406
REMARK  169  A    between atoms: _405  and  _408
REMARK  170  A    between atoms: _408  and  _409
REMARK  171  A    between atoms: _412  and  _414
REMARK  172  A    between atoms: _414  and  _415
REMARK  173  A    between atoms: _417  and  _419
REMARK  174  A    between atoms: _419  and  _420
REMARK  175  A    between atoms: _422  and  _424
REMARK  176  A    between atoms: _424  and  _425
REMARK  177  A    between atoms: _424  and  _427
REMARK  178  A    between atoms: _427  and  _428
REMARK  179  A    between atoms: _434  and  _436
REMARK  180  A    between atoms: _436  and  _437
REMARK  181  A    between atoms: _436  and  _439
REMARK  182  A    between atoms: _439  and  _440
REMARK  183  A    between atoms: _443  and  _445
REMARK  184  A    between atoms: _445  and  _446
REMARK  185  A    between atoms: _445  and  _448
REMARK  186  A    between atoms: _448  and  _449
REMARK  187  A    between atoms: _452  and  _454
REMARK  188  A    between atoms: _454  and  _455
REMARK  189  A    between atoms: _454  and  _457
REMARK  190  A    between atoms: _457  and  _458
REMARK  191  A    between atoms: _462  and  _463
REMARK  192  A    between atoms: _468  and  _470
REMARK  193  A    between atoms: _470  and  _471
REMARK  194  A    between atoms: _470  and  _473
REMARK  195  A    between atoms: _476  and  _478
REMARK  196  A    between atoms: _478  and  _479
REMARK  197  A    between atoms: _478  and  _481
REMARK  198  A    between atoms: _481  and  _482
REMARK  199  A    between atoms: _487  and  _489
REMARK  200  A    between atoms: _489  and  _490
REMARK  201  A    between atoms: _489  and  _492
REMARK  202  A    between atoms: _492  and  _493
REMARK  203  A    between atoms: _496  and  _498
REMARK  204  A    between atoms: _498  and  _499
REMARK  205  A    between atoms: _498  and  _501
REMARK  206  A    between atoms: _501  and  _502
REMARK  207  A    between atoms: _505  and  _507
REMARK  208  A    between atoms: _507  and  _508
REMARK  209  A    between atoms: _510  and  _512
REMARK  210  A    between atoms: _512  and  _513
REMARK  211  A    between atoms: _512  and  _515
REMARK  212  A    between atoms: _515  and  _516
REMARK  213  A    between atoms: _516  and  _517
REMARK  214  A    between atoms: _517  and  _518
REMARK                            x       y       z     vdW  Elec       q    Type
REMARK                         _______ _______ _______ _____ _____    ______ ____
ROOT
ATOM      1  O   HOH     1     -39.638  73.325  41.513  0.00  0.00    +0.000 OA
ENDROOT
TORSDOF 0
REMARK  Name = ../refined-set-2016/2aqu/2aqu_pocket.pdb
REMARK  214 active torsions:
REMARK  status: ('A' for Active; 'I' for Inactive)
REMARK    1  A    between atoms: _1  and  _3
REMARK    2  A    between atoms: _3  and  _4
REMARK    3  A    between atoms: _3  and  _6
REMARK    4  A    between atoms: _6  and  _7
REMARK    5  A    between atoms: _7  and  _8
REMARK    6  A    between atoms: _8  and  _9
REMARK    7  A    between atoms: _18  and  _20
REMARK    8  A    between atoms: _20  and  _21
REMARK    9  A    between atoms: _20  and  _23
REMARK   10  A    between atoms: _23  and  _24
REMARK   11  A    between atoms: _27  and  _29
REMARK   12  A    between atoms: _29  and  _30
REMARK   13  A    between atoms: _29  and  _32
REMARK   14  A    between atoms: _32  and  _33
REMARK   15  A    between atoms: _36  and  _38
REMARK   16  A    between atoms: _38  and  _39
REMARK   17  A    between atoms: _38  and  _41
REMARK   18  A    between atoms: _41  and  _42
REMARK   19  A    between atoms: _45  and  _47
REMARK   20  A    between atoms: _47  and  _48
REMARK   21  A    between atoms: _47  and  _50
REMARK   22  A    between atoms: _50  and  _51
REMARK   23  A    between atoms: _54  and  _56
REMARK   24  A    between atoms: _56  and  _57
REMARK   25  A    between atoms: _59  and  _61
REMARK   26  A    between atoms: _61  and  _62
REMARK   27  A    between atoms: _65  and  _67
REMARK   28  A    between atoms: _67  and  _68
REMARK   29  A    between atoms: _67  and  _70
REMARK   30  A    between atoms: _70  and  _71
REMARK   31  A    between atoms: _74  and  _76
REMARK   32  A    between atoms: _76  and  _77
REMARK   33  A    between atoms: _76  and  _79
REMARK   34  A    between atoms: _79  and  _80
REMARK   35  A    between atoms: _83  and  _85
REMARK   36  A    between atoms: _85  and  _86
REMARK   37  A    between atoms: _85  and  _88
REMARK   38  A    between atoms: _88  and  _89
REMARK   39  A    between atoms: _92  and  _94
REMARK   40  A    between atoms: _94  and  _95
REMARK   41  A    between atoms: _94  and  _97
REMARK   42  A    between atoms: _100  and  _102
REMARK   43  A    between atoms: _102  and  _103
REMARK   44  A    between atoms: _102  and  _105
REMARK   45  A    between atoms: _105  and  _106
REMARK   46  A    between atoms: _106  and  _107
REMARK   47  A    between atoms: _107  and  _108
REMARK   48  A    between atoms: _108  and  _109
REMARK   49  A    between atoms: _113  and  _115
REMARK   50  A    between atoms: _115  and  _116
REMARK   51  A    between atoms: _115  and  _118
REMARK   52  A    between atoms: _118  and  _119
REMARK   53  A    between atoms: _122  and  _124
REMARK   54  A    between atoms: _124  and  _125
REMARK   55  A    between atoms: _127  and  _129
REMARK   56  A    between atoms: _129  and  _130
REMARK   57  A    between atoms: _132  and  _134
REMARK   58  A    between atoms: _134  and  _135
REMARK   59  A    between atoms: _134  and  _137
REMARK   60  A    between atoms: _137  and  _138
REMARK   61  A    between atoms: _141  and  _143
REMARK   62  A    between atoms: _143  and  _144
REMARK   63  A    between atoms: _146  and  _148
REMARK   64  A    between atoms: _148  and  _149
REMARK   65  A    between atoms: _151  and  _153
REMARK   66  A    between atoms: _153  and  _154
REMARK   67  A    between atoms: _153  and  _156
REMARK   68  A    between atoms: _156  and  _157
REMARK   69  A    between atoms: _163  and  _165
REMARK   70  A    between atoms: _165  and  _166
REMARK   71  A    between atoms: _165  and  _168
REMARK   72  A    between atoms: _168  and  _169
REMARK   73  A    between atoms: _172  and  _174
REMARK   74  A    between atoms: _174  and  _175
REMARK   75  A    between atoms: _174  and  _177
REMARK   76  A    between atoms: _177  and  _178
REMARK   77  A    between atoms: _182  and  _183
REMARK   78  A    between atoms: _188  and  _190
REMARK   79  A    between atoms: _190  and  _191
REMARK   80  A    between atoms: _190  and  _193
REMARK   81  A    between atoms: _193  and  _194
REMARK   82  A    between atoms: _198  and  _199
REMARK   83  A    between atoms: _204  and  _206
REMARK   84  A    between atoms: _206  and  _207
REMARK   85  A    between atoms: _206  and  _209
REMARK   86  A    between atoms: _212  and  _214
REMARK   87  A    between atoms: _214  and  _215
REMARK   88  A    between atoms: _214  and  _217
REMARK   89  A    between atoms: _217  and  _218
REMARK   90  A    between atoms: _223  and  _225
REMARK   91  A    between atoms: _225  and  _226
REMARK   92  A    between atoms: _225  and  _228
REMARK   93  A    between atoms: _228  and  _229
REMARK   94  A    between atoms: _232  and  _234
REMARK   95  A    between atoms: _234  and  _235
REMARK   96  A    between atoms: _234  and  _237
REMARK   97  A    between atoms: _237  and  _238
REMARK   98  A    between atoms: _241  and  _243
REMARK   99  A    between atoms: _243  and  _244
REMARK  100  A    between atoms: _246  and  _248
REMARK  101  A    between atoms: _248  and  _249
REMARK  102  A    between atoms: _248  and  _251
REMARK  103  A    between atoms: _251  and  _252
REMARK  104  A    between atoms: _252  and  _253
REMARK  105  A    between atoms: _253  and  _254
REMARK  106  A    between atoms: _263  and  _265
REMARK  107  A    between atoms: _265  and  _266
REMARK  108  A    between atoms: _265  and  _268
REMARK  109  A    between atoms: _268  and  _269
REMARK  110  A    between atoms: _269  and  _270
REMARK  111  A    between atoms: _270  and  _271
REMARK  112  A    between atoms: _280  and  _282
REMARK  113  A    between atoms: _282  and  _283
REMARK  114  A    between atoms: _282  and  _285
REMARK  115  A    between atoms: _285  and  _286
REMARK  116  A    between atoms: _289  and  _291
REMARK  117  A    between atoms: _291  and  _292
REMARK  118  A    between atoms: _291  and  _294
REMARK  119  A    between atoms: _294  and  _295
REMARK  120  A    between atoms: _298  and  _300
REMARK  121  A    between atoms: _300  and  _301
REMARK  122  A    between atoms: _300  and  _303
REMARK  123  A    between atoms: _303  and  _304
REMARK  124  A    between atoms: _307  and  _309
REMARK  125  A    between atoms: _309  and  _310
REMARK  126  A    between atoms: _309  and  _312
REMARK  127  A    between atoms: _312  and  _313
REMARK  128  A    between atoms: _316  and  _318
REMARK  129  A    between atoms: _318  and  _319
REMARK  130  A    between atoms: _321  and  _323
REMARK  131  A    between atoms: _323  and  _324
REMARK  132  A    between atoms: _327  and  _329
REMARK  133  A    between atoms: _329  and  _330
REMARK  134  A    between atoms: _329  and  _332
REMARK  135  A    between atoms: _332  and  _333
REMARK  136  A    between atoms: _336  and  _338
REMARK  137  A    between atoms: _338  and  _339
REMARK  138  A    between atoms: _338  and  _341
REMARK  139  A    between atoms: _341  and  _342
REMARK  140  A    between atoms: _345  and  _347
REMARK  141  A    between atoms: _347  and  _348
REMARK  142  A    between atoms: _347  and  _350
REMARK  143  A    between atoms: _350  and  _351
REMARK  144  A    between atoms: _354  and  _356
REMARK  145  A    between atoms: _356  and  _357
REMARK  146  A    between atoms: _356  and  _359
REMARK  147  A    between atoms: _362  and  _364
REMARK  148  A    between atoms: _364  and  _365
REMARK  149  A    between atoms: _364  and  _367
REMARK  150  A    between atoms: _367  and  _368
REMARK  151  A    between atoms: _368  and  _369
REMARK  152  A    between atoms: _369  and  _370
REMARK  153  A    between atoms: _370  and  _371
REMARK  154  A    between atoms: _375  and  _377
REMARK  155  A    between atoms: _377  and  _378
REMARK  156  A    between atoms: _377  and  _380
REMARK  157  A    between atoms: _380  and  _381
REMARK  158  A    between atoms: _381  and  _382
REMARK  159  A    between atoms: _384  and  _386
REMARK  160  A    between atoms: _386  and  _387
REMARK  161  A    between atoms: _386  and  _389
REMARK  162  A    between atoms: _389  and  _390
REMARK  163  A    between atoms: _393  and  _395
REMARK  164  A    between atoms: _395  and  _396
REMARK  165  A    between atoms: _398  and  _400
REMARK  166  A    between atoms: _400  and  _401
REMARK  167  A    between atoms: _403  and  _405
REMARK  168  A    between atoms: _405  and  _406
REMARK  169  A    between atoms: _405  and  _408
REMARK  170  A    between atoms: _408  and  _409
REMARK  171  A    between atoms: _412  and  _414
REMARK  172  A    between atoms: _414  and  _415
REMARK  173  A    between atoms: _417  and  _419
REMARK  174  A    between atoms: _419  and  _420
REMARK  175  A    between atoms: _422  and  _424
REMARK  176  A    between atoms: _424  and  _425
REMARK  177  A    between atoms: _424  and  _427
REMARK  178  A    between atoms: _427  and  _428
REMARK  179  A    between atoms: _434  and  _436
REMARK  180  A    between atoms: _436  and  _437
REMARK  181  A    between atoms: _436  and  _439
REMARK  182  A    between atoms: _439  and  _440
REMARK  183  A    between atoms: _443  and  _445
REMARK  184  A    between atoms: _445  and  _446
REMARK  185  A    between atoms: _445  and  _448
REMARK  186  A    between atoms: _448  and  _449
REMARK  187  A    between atoms: _452  and  _454
REMARK  188  A    between atoms: _454  and  _455
REMARK  189  A    between atoms: _454  and  _457
REMARK  190  A    between atoms: _457  and  _458
REMARK  191  A    between atoms: _462  and  _463
REMARK  192  A    between atoms: _468  and  _470
REMARK  193  A    between atoms: _470  and  _471
REMARK  194  A    between atoms: _470  and  _473
REMARK  195  A    between atoms: _476  and  _478
REMARK  196  A    between atoms: _478  and  _479
REMARK  197  A    between atoms: _478  and  _481
REMARK  198  A    between atoms: _481  and  _482
REMARK  199  A    between atoms: _487  and  _489
REMARK  200  A    between atoms: _489  and  _490
REMARK  201  A    between atoms: _489  and  _492
REMARK  202  A    between atoms: _492  and  _493
REMARK  203  A    between atoms: _496  and  _498
REMARK  204  A    between atoms: _498  and  _499
REMARK  205  A    between atoms: _498  and  _501
REMARK  206  A    between atoms: _501  and  _502
REMARK  207  A    between atoms: _505  and  _507
REMARK  208  A    between atoms: _507  and  _508
REMARK  209  A    between atoms: _510  and  _512
REMARK  210  A    between atoms: _512  and  _513
REMARK  211  A    between atoms: _512  and  _515
REMARK  212  A    between atoms: _515  and  _516
REMARK  213  A    between atoms: _516  and  _517
REMARK  214  A    between atoms: _517  and  _518
REMARK                            x       y       z     vdW  Elec       q    Type
REMARK                         _______ _______ _______ _____ _____    ______ ____
ROOT
ATOM      1  O   HOH     1     -46.747  70.182  32.835  0.00  0.00    +0.000 OA
ENDROOT
TORSDOF 0
REMARK  Name = ../refined-set-2016/2aqu/2aqu_pocket.pdb
REMARK  214 active torsions:
REMARK  status: ('A' for Active; 'I' for Inactive)
REMARK    1  A    between atoms: _1  and  _3
REMARK    2  A    between atoms: _3  and  _4
REMARK    3  A    between atoms: _3  and  _6
REMARK    4  A    between atoms: _6  and  _7
REMARK    5  A    between atoms: _7  and  _8
REMARK    6  A    between atoms: _8  and  _9
REMARK    7  A    between atoms: _18  and  _20
REMARK    8  A    between atoms: _20  and  _21
REMARK    9  A    between atoms: _20  and  _23
REMARK   10  A    between atoms: _23  and  _24
REMARK   11  A    between atoms: _27  and  _29
REMARK   12  A    between atoms: _29  and  _30
REMARK   13  A    between atoms: _29  and  _32
REMARK   14  A    between atoms: _32  and  _33
REMARK   15  A    between atoms: _36  and  _38
REMARK   16  A    between atoms: _38  and  _39
REMARK   17  A    between atoms: _38  and  _41
REMARK   18  A    between atoms: _41  and  _42
REMARK   19  A    between atoms: _45  and  _47
REMARK   20  A    between atoms: _47  and  _48
REMARK   21  A    between atoms: _47  and  _50
REMARK   22  A    between atoms: _50  and  _51
REMARK   23  A    between atoms: _54  and  _56
REMARK   24  A    between atoms: _56  and  _57
REMARK   25  A    between atoms: _59  and  _61
REMARK   26  A    between atoms: _61  and  _62
REMARK   27  A    between atoms: _65  and  _67
REMARK   28  A    between atoms: _67  and  _68
REMARK   29  A    between atoms: _67  and  _70
REMARK   30  A    between atoms: _70  and  _71
REMARK   31  A    between atoms: _74  and  _76
REMARK   32  A    between atoms: _76  and  _77
REMARK   33  A    between atoms: _76  and  _79
REMARK   34  A    between atoms: _79  and  _80
REMARK   35  A    between atoms: _83  and  _85
REMARK   36  A    between atoms: _85  and  _86
REMARK   37  A    between atoms: _85  and  _88
REMARK   38  A    between atoms: _88  and  _89
REMARK   39  A    between atoms: _92  and  _94
REMARK   40  A    between atoms: _94  and  _95
REMARK   41  A    between atoms: _94  and  _97
REMARK   42  A    between atoms: _100  and  _102
REMARK   43  A    between atoms: _102  and  _103
REMARK   44  A    between atoms: _102  and  _105
REMARK   45  A    between atoms: _105  and  _106
REMARK   46  A    between atoms: _106  and  _107
REMARK   47  A    between atoms: _107  and  _108
REMARK   48  A    between atoms: _108  and  _109
REMARK   49  A    between atoms: _113  and  _115
REMARK   50  A    between atoms: _115  and  _116
REMARK   51  A    between atoms: _115  and  _118
REMARK   52  A    between atoms: _118  and  _119
REMARK   53  A    between atoms: _122  and  _124
REMARK   54  A    between atoms: _124  and  _125
REMARK   55  A    between atoms: _127  and  _129
REMARK   56  A    between atoms: _129  and  _130
REMARK   57  A    between atoms: _132  and  _134
REMARK   58  A    between atoms: _134  and  _135
REMARK   59  A    between atoms: _134  and  _137
REMARK   60  A    between atoms: _137  and  _138
REMARK   61  A    between atoms: _141  and  _143
REMARK   62  A    between atoms: _143  and  _144
REMARK   63  A    between atoms: _146  and  _148
REMARK   64  A    between atoms: _148  and  _149
REMARK   65  A    between atoms: _151  and  _153
REMARK   66  A    between atoms: _153  and  _154
REMARK   67  A    between atoms: _153  and  _156
REMARK   68  A    between atoms: _156  and  _157
REMARK   69  A    between atoms: _163  and  _165
REMARK   70  A    between atoms: _165  and  _166
REMARK   71  A    between atoms: _165  and  _168
REMARK   72  A    between atoms: _168  and  _169
REMARK   73  A    between atoms: _172  and  _174
REMARK   74  A    between atoms: _174  and  _175
REMARK   75  A    between atoms: _174  and  _177
REMARK   76  A    between atoms: _177  and  _178
REMARK   77  A    between atoms: _182  and  _183
REMARK   78  A    between atoms: _188  and  _190
REMARK   79  A    between atoms: _190  and  _191
REMARK   80  A    between atoms: _190  and  _193
REMARK   81  A    between atoms: _193  and  _194
REMARK   82  A    between atoms: _198  and  _199
REMARK   83  A    between atoms: _204  and  _206
REMARK   84  A    between atoms: _206  and  _207
REMARK   85  A    between atoms: _206  and  _209
REMARK   86  A    between atoms: _212  and  _214
REMARK   87  A    between atoms: _214  and  _215
REMARK   88  A    between atoms: _214  and  _217
REMARK   89  A    between atoms: _217  and  _218
REMARK   90  A    between atoms: _223  and  _225
REMARK   91  A    between atoms: _225  and  _226
REMARK   92  A    between atoms: _225  and  _228
REMARK   93  A    between atoms: _228  and  _229
REMARK   94  A    between atoms: _232  and  _234
REMARK   95  A    between atoms: _234  and  _235
REMARK   96  A    between atoms: _234  and  _237
REMARK   97  A    between atoms: _237  and  _238
REMARK   98  A    between atoms: _241  and  _243
REMARK   99  A    between atoms: _243  and  _244
REMARK  100  A    between atoms: _246  and  _248
REMARK  101  A    between atoms: _248  and  _249
REMARK  102  A    between atoms: _248  and  _251
REMARK  103  A    between atoms: _251  and  _252
REMARK  104  A    between atoms: _252  and  _253
REMARK  105  A    between atoms: _253  and  _254
REMARK  106  A    between atoms: _263  and  _265
REMARK  107  A    between atoms: _265  and  _266
REMARK  108  A    between atoms: _265  and  _268
REMARK  109  A    between atoms: _268  and  _269
REMARK  110  A    between atoms: _269  and  _270
REMARK  111  A    between atoms: _270  and  _271
REMARK  112  A    between atoms: _280  and  _282
REMARK  113  A    between atoms: _282  and  _283
REMARK  114  A    between atoms: _282  and  _285
REMARK  115  A    between atoms: _285  and  _286
REMARK  116  A    between atoms: _289  and  _291
REMARK  117  A    between atoms: _291  and  _292
REMARK  118  A    between atoms: _291  and  _294
REMARK  119  A    between atoms: _294  and  _295
REMARK  120  A    between atoms: _298  and  _300
REMARK  121  A    between atoms: _300  and  _301
REMARK  122  A    between atoms: _300  and  _303
REMARK  123  A    between atoms: _303  and  _304
REMARK  124  A    between atoms: _307  and  _309
REMARK  125  A    between atoms: _309  and  _310
REMARK  126  A    between atoms: _309  and  _312
REMARK  127  A    between atoms: _312  and  _313
REMARK  128  A    between atoms: _316  and  _318
REMARK  129  A    between atoms: _318  and  _319
REMARK  130  A    between atoms: _321  and  _323
REMARK  131  A    between atoms: _323  and  _324
REMARK  132  A    between atoms: _327  and  _329
REMARK  133  A    between atoms: _329  and  _330
REMARK  134  A    between atoms: _329  and  _332
REMARK  135  A    between atoms: _332  and  _333
REMARK  136  A    between atoms: _336  and  _338
REMARK  137  A    between atoms: _338  and  _339
REMARK  138  A    between atoms: _338  and  _341
REMARK  139  A    between atoms: _341  and  _342
REMARK  140  A    between atoms: _345  and  _347
REMARK  141  A    between atoms: _347  and  _348
REMARK  142  A    between atoms: _347  and  _350
REMARK  143  A    between atoms: _350  and  _351
REMARK  144  A    between atoms: _354  and  _356
REMARK  145  A    between atoms: _356  and  _357
REMARK  146  A    between atoms: _356  and  _359
REMARK  147  A    between atoms: _362  and  _364
REMARK  148  A    between atoms: _364  and  _365
REMARK  149  A    between atoms: _364  and  _367
REMARK  150  A    between atoms: _367  and  _368
REMARK  151  A    between atoms: _368  and  _369
REMARK  152  A    between atoms: _369  and  _370
REMARK  153  A    between atoms: _370  and  _371
REMARK  154  A    between atoms: _375  and  _377
REMARK  155  A    between atoms: _377  and  _378
REMARK  156  A    between atoms: _377  and  _380
REMARK  157  A    between atoms: _380  and  _381
REMARK  158  A    between atoms: _381  and  _382
REMARK  159  A    between atoms: _384  and  _386
REMARK  160  A    between atoms: _386  and  _387
REMARK  161  A    between atoms: _386  and  _389
REMARK  162  A    between atoms: _389  and  _390
REMARK  163  A    between atoms: _393  and  _395
REMARK  164  A    between atoms: _395  and  _396
REMARK  165  A    between atoms: _398  and  _400
REMARK  166  A    between atoms: _400  and  _401
REMARK  167  A    between atoms: _403  and  _405
REMARK  168  A    between atoms: _405  and  _406
REMARK  169  A    between atoms: _405  and  _408
REMARK  170  A    between atoms: _408  and  _409
REMARK  171  A    between atoms: _412  and  _414
REMARK  172  A    between atoms: _414  and  _415
REMARK  173  A    between atoms: _417  and  _419
REMARK  174  A    between atoms: _419  and  _420
REMARK  175  A    between atoms: _422  and  _424
REMARK  176  A    between atoms: _424  and  _425
REMARK  177  A    between atoms: _424  and  _427
REMARK  178  A    between atoms: _427  and  _428
REMARK  179  A    between atoms: _434  and  _436
REMARK  180  A    between atoms: _436  and  _437
REMARK  181  A    between atoms: _436  and  _439
REMARK  182  A    between atoms: _439  and  _440
REMARK  183  A    between atoms: _443  and  _445
REMARK  184  A    between atoms: _445  and  _446
REMARK  185  A    between atoms: _445  and  _448
REMARK  186  A    between atoms: _448  and  _449
REMARK  187  A    between atoms: _452  and  _454
REMARK  188  A    between atoms: _454  and  _455
REMARK  189  A    between atoms: _454  and  _457
REMARK  190  A    between atoms: _457  and  _458
REMARK  191  A    between atoms: _462  and  _463
REMARK  192  A    between atoms: _468  and  _470
REMARK  193  A    between atoms: _470  and  _471
REMARK  194  A    between atoms: _470  and  _473
REMARK  195  A    between atoms: _476  and  _478
REMARK  196  A    between atoms: _478  and  _479
REMARK  197  A    between atoms: _478  and  _481
REMARK  198  A    between atoms: _481  and  _482
REMARK  199  A    between atoms: _487  and  _489
REMARK  200  A    between atoms: _489  and  _490
REMARK  201  A    between atoms: _489  and  _492
REMARK  202  A    between atoms: _492  and  _493
REMARK  203  A    between atoms: _496  and  _498
REMARK  204  A    between atoms: _498  and  _499
REMARK  205  A    between atoms: _498  and  _501
REMARK  206  A    between atoms: _501  and  _502
REMARK  207  A    between atoms: _505  and  _507
REMARK  208  A    between atoms: _507  and  _508
REMARK  209  A    between atoms: _510  and  _512
REMARK  210  A    between atoms: _512  and  _513
REMARK  211  A    between atoms: _512  and  _515
REMARK  212  A    between atoms: _515  and  _516
REMARK  213  A    between atoms: _516  and  _517
REMARK  214  A    between atoms: _517  and  _518
REMARK                            x       y       z     vdW  Elec       q    Type
REMARK                         _______ _______ _______ _____ _____    ______ ____
ROOT
ATOM      1  O   HOH     1     -45.538  66.983  38.341  0.00  0.00    +0.000 OA
ENDROOT
TORSDOF 0
REMARK  Name = ../refined-set-2016/2aqu/2aqu_pocket.pdb
REMARK  214 active torsions:
REMARK  status: ('A' for Active; 'I' for Inactive)
REMARK    1  A    between atoms: _1  and  _3
REMARK    2  A    between atoms: _3  and  _4
REMARK    3  A    between atoms: _3  and  _6
REMARK    4  A    between atoms: _6  and  _7
REMARK    5  A    between atoms: _7  and  _8
REMARK    6  A    between atoms: _8  and  _9
REMARK    7  A    between atoms: _18  and  _20
REMARK    8  A    between atoms: _20  and  _21
REMARK    9  A    between atoms: _20  and  _23
REMARK   10  A    between atoms: _23  and  _24
REMARK   11  A    between atoms: _27  and  _29
REMARK   12  A    between atoms: _29  and  _30
REMARK   13  A    between atoms: _29  and  _32
REMARK   14  A    between atoms: _32  and  _33
REMARK   15  A    between atoms: _36  and  _38
REMARK   16  A    between atoms: _38  and  _39
REMARK   17  A    between atoms: _38  and  _41
REMARK   18  A    between atoms: _41  and  _42
REMARK   19  A    between atoms: _45  and  _47
REMARK   20  A    between atoms: _47  and  _48
REMARK   21  A    between atoms: _47  and  _50
REMARK   22  A    between atoms: _50  and  _51
REMARK   23  A    between atoms: _54  and  _56
REMARK   24  A    between atoms: _56  and  _57
REMARK   25  A    between atoms: _59  and  _61
REMARK   26  A    between atoms: _61  and  _62
REMARK   27  A    between atoms: _65  and  _67
REMARK   28  A    between atoms: _67  and  _68
REMARK   29  A    between atoms: _67  and  _70
REMARK   30  A    between atoms: _70  and  _71
REMARK   31  A    between atoms: _74  and  _76
REMARK   32  A    between atoms: _76  and  _77
REMARK   33  A    between atoms: _76  and  _79
REMARK   34  A    between atoms: _79  and  _80
REMARK   35  A    between atoms: _83  and  _85
REMARK   36  A    between atoms: _85  and  _86
REMARK   37  A    between atoms: _85  and  _88
REMARK   38  A    between atoms: _88  and  _89
REMARK   39  A    between atoms: _92  and  _94
REMARK   40  A    between atoms: _94  and  _95
REMARK   41  A    between atoms: _94  and  _97
REMARK   42  A    between atoms: _100  and  _102
REMARK   43  A    between atoms: _102  and  _103
REMARK   44  A    between atoms: _102  and  _105
REMARK   45  A    between atoms: _105  and  _106
REMARK   46  A    between atoms: _106  and  _107
REMARK   47  A    between atoms: _107  and  _108
REMARK   48  A    between atoms: _108  and  _109
REMARK   49  A    between atoms: _113  and  _115
REMARK   50  A    between atoms: _115  and  _116
REMARK   51  A    between atoms: _115  and  _118
REMARK   52  A    between atoms: _118  and  _119
REMARK   53  A    between atoms: _122  and  _124
REMARK   54  A    between atoms: _124  and  _125
REMARK   55  A    between atoms: _127  and  _129
REMARK   56  A    between atoms: _129  and  _130
REMARK   57  A    between atoms: _132  and  _134
REMARK   58  A    between atoms: _134  and  _135
REMARK   59  A    between atoms: _134  and  _137
REMARK   60  A    between atoms: _137  and  _138
REMARK   61  A    between atoms: _141  and  _143
REMARK   62  A    between atoms: _143  and  _144
REMARK   63  A    between atoms: _146  and  _148
REMARK   64  A    between atoms: _148  and  _149
REMARK   65  A    between atoms: _151  and  _153
REMARK   66  A    between atoms: _153  and  _154
REMARK   67  A    between atoms: _153  and  _156
REMARK   68  A    between atoms: _156  and  _157
REMARK   69  A    between atoms: _163  and  _165
REMARK   70  A    between atoms: _165  and  _166
REMARK   71  A    between atoms: _165  and  _168
REMARK   72  A    between atoms: _168  and  _169
REMARK   73  A    between atoms: _172  and  _174
REMARK   74  A    between atoms: _174  and  _175
REMARK   75  A    between atoms: _174  and  _177
REMARK   76  A    between atoms: _177  and  _178
REMARK   77  A    between atoms: _182  and  _183
REMARK   78  A    between atoms: _188  and  _190
REMARK   79  A    between atoms: _190  and  _191
REMARK   80  A    between atoms: _190  and  _193
REMARK   81  A    between atoms: _193  and  _194
REMARK   82  A    between atoms: _198  and  _199
REMARK   83  A    between atoms: _204  and  _206
REMARK   84  A    between atoms: _206  and  _207
REMARK   85  A    between atoms: _206  and  _209
REMARK   86  A    between atoms: _212  and  _214
REMARK   87  A    between atoms: _214  and  _215
REMARK   88  A    between atoms: _214  and  _217
REMARK   89  A    between atoms: _217  and  _218
REMARK   90  A    between atoms: _223  and  _225
REMARK   91  A    between atoms: _225  and  _226
REMARK   92  A    between atoms: _225  and  _228
REMARK   93  A    between atoms: _228  and  _229
REMARK   94  A    between atoms: _232  and  _234
REMARK   95  A    between atoms: _234  and  _235
REMARK   96  A    between atoms: _234  and  _237
REMARK   97  A    between atoms: _237  and  _238
REMARK   98  A    between atoms: _241  and  _243
REMARK   99  A    between atoms: _243  and  _244
REMARK  100  A    between atoms: _246  and  _248
REMARK  101  A    between atoms: _248  and  _249
REMARK  102  A    between atoms: _248  and  _251
REMARK  103  A    between atoms: _251  and  _252
REMARK  104  A    between atoms: _252  and  _253
REMARK  105  A    between atoms: _253  and  _254
REMARK  106  A    between atoms: _263  and  _265
REMARK  107  A    between atoms: _265  and  _266
REMARK  108  A    between atoms: _265  and  _268
REMARK  109  A    between atoms: _268  and  _269
REMARK  110  A    between atoms: _269  and  _270
REMARK  111  A    between atoms: _270  and  _271
REMARK  112  A    between atoms: _280  and  _282
REMARK  113  A    between atoms: _282  and  _283
REMARK  114  A    between atoms: _282  and  _285
REMARK  115  A    between atoms: _285  and  _286
REMARK  116  A    between atoms: _289  and  _291
REMARK  117  A    between atoms: _291  and  _292
REMARK  118  A    between atoms: _291  and  _294
REMARK  119  A    between atoms: _294  and  _295
REMARK  120  A    between atoms: _298  and  _300
REMARK  121  A    between atoms: _300  and  _301
REMARK  122  A    between atoms: _300  and  _303
REMARK  123  A    between atoms: _303  and  _304
REMARK  124  A    between atoms: _307  and  _309
REMARK  125  A    between atoms: _309  and  _310
REMARK  126  A    between atoms: _309  and  _312
REMARK  127  A    between atoms: _312  and  _313
REMARK  128  A    between atoms: _316  and  _318
REMARK  129  A    between atoms: _318  and  _319
REMARK  130  A    between atoms: _321  and  _323
REMARK  131  A    between atoms: _323  and  _324
REMARK  132  A    between atoms: _327  and  _329
REMARK  133  A    between atoms: _329  and  _330
REMARK  134  A    between atoms: _329  and  _332
REMARK  135  A    between atoms: _332  and  _333
REMARK  136  A    between atoms: _336  and  _338
REMARK  137  A    between atoms: _338  and  _339
REMARK  138  A    between atoms: _338  and  _341
REMARK  139  A    between atoms: _341  and  _342
REMARK  140  A    between atoms: _345  and  _347
REMARK  141  A    between atoms: _347  and  _348
REMARK  142  A    between atoms: _347  and  _350
REMARK  143  A    between atoms: _350  and  _351
REMARK  144  A    between atoms: _354  and  _356
REMARK  145  A    between atoms: _356  and  _357
REMARK  146  A    between atoms: _356  and  _359
REMARK  147  A    between atoms: _362  and  _364
REMARK  148  A    between atoms: _364  and  _365
REMARK  149  A    between atoms: _364  and  _367
REMARK  150  A    between atoms: _367  and  _368
REMARK  151  A    between atoms: _368  and  _369
REMARK  152  A    between atoms: _369  and  _370
REMARK  153  A    between atoms: _370  and  _371
REMARK  154  A    between atoms: _375  and  _377
REMARK  155  A    between atoms: _377  and  _378
REMARK  156  A    between atoms: _377  and  _380
REMARK  157  A    between atoms: _380  and  _381
REMARK  158  A    between atoms: _381  and  _382
REMARK  159  A    between atoms: _384  and  _386
REMARK  160  A    between atoms: _386  and  _387
REMARK  161  A    between atoms: _386  and  _389
REMARK  162  A    between atoms: _389  and  _390
REMARK  163  A    between atoms: _393  and  _395
REMARK  164  A    between atoms: _395  and  _396
REMARK  165  A    between atoms: _398  and  _400
REMARK  166  A    between atoms: _400  and  _401
REMARK  167  A    between atoms: _403  and  _405
REMARK  168  A    between atoms: _405  and  _406
REMARK  169  A    between atoms: _405  and  _408
REMARK  170  A    between atoms: _408  and  _409
REMARK  171  A    between atoms: _412  and  _414
REMARK  172  A    between atoms: _414  and  _415
REMARK  173  A    between atoms: _417  and  _419
REMARK  174  A    between atoms: _419  and  _420
REMARK  175  A    between atoms: _422  and  _424
REMARK  176  A    between atoms: _424  and  _425
REMARK  177  A    between atoms: _424  and  _427
REMARK  178  A    between atoms: _427  and  _428
REMARK  179  A    between atoms: _434  and  _436
REMARK  180  A    between atoms: _436  and  _437
REMARK  181  A    between atoms: _436  and  _439
REMARK  182  A    between atoms: _439  and  _440
REMARK  183  A    between atoms: _443  and  _445
REMARK  184  A    between atoms: _445  and  _446
REMARK  185  A    between atoms: _445  and  _448
REMARK  186  A    between atoms: _448  and  _449
REMARK  187  A    between atoms: _452  and  _454
REMARK  188  A    between atoms: _454  and  _455
REMARK  189  A    between atoms: _454  and  _457
REMARK  190  A    between atoms: _457  and  _458
REMARK  191  A    between atoms: _462  and  _463
REMARK  192  A    between atoms: _468  and  _470
REMARK  193  A    between atoms: _470  and  _471
REMARK  194  A    between atoms: _470  and  _473
REMARK  195  A    between atoms: _476  and  _478
REMARK  196  A    between atoms: _478  and  _479
REMARK  197  A    between atoms: _478  and  _481
REMARK  198  A    between atoms: _481  and  _482
REMARK  199  A    between atoms: _487  and  _489
REMARK  200  A    between atoms: _489  and  _490
REMARK  201  A    between atoms: _489  and  _492
REMARK  202  A    between atoms: _492  and  _493
REMARK  203  A    between atoms: _496  and  _498
REMARK  204  A    between atoms: _498  and  _499
REMARK  205  A    between atoms: _498  and  _501
REMARK  206  A    between atoms: _501  and  _502
REMARK  207  A    between atoms: _505  and  _507
REMARK  208  A    between atoms: _507  and  _508
REMARK  209  A    between atoms: _510  and  _512
REMARK  210  A    between atoms: _512  and  _513
REMARK  211  A    between atoms: _512  and  _515
REMARK  212  A    between atoms: _515  and  _516
REMARK  213  A    between atoms: _516  and  _517
REMARK  214  A    between atoms: _517  and  _518
REMARK                            x       y       z     vdW  Elec       q    Type
REMARK                         _______ _______ _______ _____ _____    ______ ____
ROOT
ATOM      1  O   HOH     1     -42.371  65.145  40.679  0.00  0.00    +0.000 OA
ENDROOT
TORSDOF 0
REMARK  Name = ../refined-set-2016/2aqu/2aqu_pocket.pdb
REMARK  214 active torsions:
REMARK  status: ('A' for Active; 'I' for Inactive)
REMARK    1  A    between atoms: _1  and  _3
REMARK    2  A    between atoms: _3  and  _4
REMARK    3  A    between atoms: _3  and  _6
REMARK    4  A    between atoms: _6  and  _7
REMARK    5  A    between atoms: _7  and  _8
REMARK    6  A    between atoms: _8  and  _9
REMARK    7  A    between atoms: _18  and  _20
REMARK    8  A    between atoms: _20  and  _21
REMARK    9  A    between atoms: _20  and  _23
REMARK   10  A    between atoms: _23  and  _24
REMARK   11  A    between atoms: _27  and  _29
REMARK   12  A    between atoms: _29  and  _30
REMARK   13  A    between atoms: _29  and  _32
REMARK   14  A    between atoms: _32  and  _33
REMARK   15  A    between atoms: _36  and  _38
REMARK   16  A    between atoms: _38  and  _39
REMARK   17  A    between atoms: _38  and  _41
REMARK   18  A    between atoms: _41  and  _42
REMARK   19  A    between atoms: _45  and  _47
REMARK   20  A    between atoms: _47  and  _48
REMARK   21  A    between atoms: _47  and  _50
REMARK   22  A    between atoms: _50  and  _51
REMARK   23  A    between atoms: _54  and  _56
REMARK   24  A    between atoms: _56  and  _57
REMARK   25  A    between atoms: _59  and  _61
REMARK   26  A    between atoms: _61  and  _62
REMARK   27  A    between atoms: _65  and  _67
REMARK   28  A    between atoms: _67  and  _68
REMARK   29  A    between atoms: _67  and  _70
REMARK   30  A    between atoms: _70  and  _71
REMARK   31  A    between atoms: _74  and  _76
REMARK   32  A    between atoms: _76  and  _77
REMARK   33  A    between atoms: _76  and  _79
REMARK   34  A    between atoms: _79  and  _80
REMARK   35  A    between atoms: _83  and  _85
REMARK   36  A    between atoms: _85  and  _86
REMARK   37  A    between atoms: _85  and  _88
REMARK   38  A    between atoms: _88  and  _89
REMARK   39  A    between atoms: _92  and  _94
REMARK   40  A    between atoms: _94  and  _95
REMARK   41  A    between atoms: _94  and  _97
REMARK   42  A    between atoms: _100  and  _102
REMARK   43  A    between atoms: _102  and  _103
REMARK   44  A    between atoms: _102  and  _105
REMARK   45  A    between atoms: _105  and  _106
REMARK   46  A    between atoms: _106  and  _107
REMARK   47  A    between atoms: _107  and  _108
REMARK   48  A    between atoms: _108  and  _109
REMARK   49  A    between atoms: _113  and  _115
REMARK   50  A    between atoms: _115  and  _116
REMARK   51  A    between atoms: _115  and  _118
REMARK   52  A    between atoms: _118  and  _119
REMARK   53  A    between atoms: _122  and  _124
REMARK   54  A    between atoms: _124  and  _125
REMARK   55  A    between atoms: _127  and  _129
REMARK   56  A    between atoms: _129  and  _130
REMARK   57  A    between atoms: _132  and  _134
REMARK   58  A    between atoms: _134  and  _135
REMARK   59  A    between atoms: _134  and  _137
REMARK   60  A    between atoms: _137  and  _138
REMARK   61  A    between atoms: _141  and  _143
REMARK   62  A    between atoms: _143  and  _144
REMARK   63  A    between atoms: _146  and  _148
REMARK   64  A    between atoms: _148  and  _149
REMARK   65  A    between atoms: _151  and  _153
REMARK   66  A    between atoms: _153  and  _154
REMARK   67  A    between atoms: _153  and  _156
REMARK   68  A    between atoms: _156  and  _157
REMARK   69  A    between atoms: _163  and  _165
REMARK   70  A    between atoms: _165  and  _166
REMARK   71  A    between atoms: _165  and  _168
REMARK   72  A    between atoms: _168  and  _169
REMARK   73  A    between atoms: _172  and  _174
REMARK   74  A    between atoms: _174  and  _175
REMARK   75  A    between atoms: _174  and  _177
REMARK   76  A    between atoms: _177  and  _178
REMARK   77  A    between atoms: _182  and  _183
REMARK   78  A    between atoms: _188  and  _190
REMARK   79  A    between atoms: _190  and  _191
REMARK   80  A    between atoms: _190  and  _193
REMARK   81  A    between atoms: _193  and  _194
REMARK   82  A    between atoms: _198  and  _199
REMARK   83  A    between atoms: _204  and  _206
REMARK   84  A    between atoms: _206  and  _207
REMARK   85  A    between atoms: _206  and  _209
REMARK   86  A    between atoms: _212  and  _214
REMARK   87  A    between atoms: _214  and  _215
REMARK   88  A    between atoms: _214  and  _217
REMARK   89  A    between atoms: _217  and  _218
REMARK   90  A    between atoms: _223  and  _225
REMARK   91  A    between atoms: _225  and  _226
REMARK   92  A    between atoms: _225  and  _228
REMARK   93  A    between atoms: _228  and  _229
REMARK   94  A    between atoms: _232  and  _234
REMARK   95  A    between atoms: _234  and  _235
REMARK   96  A    between atoms: _234  and  _237
REMARK   97  A    between atoms: _237  and  _238
REMARK   98  A    between atoms: _241  and  _243
REMARK   99  A    between atoms: _243  and  _244
REMARK  100  A    between atoms: _246  and  _248
REMARK  101  A    between atoms: _248  and  _249
REMARK  102  A    between atoms: _248  and  _251
REMARK  103  A    between atoms: _251  and  _252
REMARK  104  A    between atoms: _252  and  _253
REMARK  105  A    between atoms: _253  and  _254
REMARK  106  A    between atoms: _263  and  _265
REMARK  107  A    between atoms: _265  and  _266
REMARK  108  A    between atoms: _265  and  _268
REMARK  109  A    between atoms: _268  and  _269
REMARK  110  A    between atoms: _269  and  _270
REMARK  111  A    between atoms: _270  and  _271
REMARK  112  A    between atoms: _280  and  _282
REMARK  113  A    between atoms: _282  and  _283
REMARK  114  A    between atoms: _282  and  _285
REMARK  115  A    between atoms: _285  and  _286
REMARK  116  A    between atoms: _289  and  _291
REMARK  117  A    between atoms: _291  and  _292
REMARK  118  A    between atoms: _291  and  _294
REMARK  119  A    between atoms: _294  and  _295
REMARK  120  A    between atoms: _298  and  _300
REMARK  121  A    between atoms: _300  and  _301
REMARK  122  A    between atoms: _300  and  _303
REMARK  123  A    between atoms: _303  and  _304
REMARK  124  A    between atoms: _307  and  _309
REMARK  125  A    between atoms: _309  and  _310
REMARK  126  A    between atoms: _309  and  _312
REMARK  127  A    between atoms: _312  and  _313
REMARK  128  A    between atoms: _316  and  _318
REMARK  129  A    between atoms: _318  and  _319
REMARK  130  A    between atoms: _321  and  _323
REMARK  131  A    between atoms: _323  and  _324
REMARK  132  A    between atoms: _327  and  _329
REMARK  133  A    between atoms: _329  and  _330
REMARK  134  A    between atoms: _329  and  _332
REMARK  135  A    between atoms: _332  and  _333
REMARK  136  A    between atoms: _336  and  _338
REMARK  137  A    between atoms: _338  and  _339
REMARK  138  A    between atoms: _338  and  _341
REMARK  139  A    between atoms: _341  and  _342
REMARK  140  A    between atoms: _345  and  _347
REMARK  141  A    between atoms: _347  and  _348
REMARK  142  A    between atoms: _347  and  _350
REMARK  143  A    between atoms: _350  and  _351
REMARK  144  A    between atoms: _354  and  _356
REMARK  145  A    between atoms: _356  and  _357
REMARK  146  A    between atoms: _356  and  _359
REMARK  147  A    between atoms: _362  and  _364
REMARK  148  A    between atoms: _364  and  _365
REMARK  149  A    between atoms: _364  and  _367
REMARK  150  A    between atoms: _367  and  _368
REMARK  151  A    between atoms: _368  and  _369
REMARK  152  A    between atoms: _369  and  _370
REMARK  153  A    between atoms: _370  and  _371
REMARK  154  A    between atoms: _375  and  _377
REMARK  155  A    between atoms: _377  and  _378
REMARK  156  A    between atoms: _377  and  _380
REMARK  157  A    between atoms: _380  and  _381
REMARK  158  A    between atoms: _381  and  _382
REMARK  159  A    between atoms: _384  and  _386
REMARK  160  A    between atoms: _386  and  _387
REMARK  161  A    between atoms: _386  and  _389
REMARK  162  A    between atoms: _389  and  _390
REMARK  163  A    between atoms: _393  and  _395
REMARK  164  A    between atoms: _395  and  _396
REMARK  165  A    between atoms: _398  and  _400
REMARK  166  A    between atoms: _400  and  _401
REMARK  167  A    between atoms: _403  and  _405
REMARK  168  A    between atoms: _405  and  _406
REMARK  169  A    between atoms: _405  and  _408
REMARK  170  A    between atoms: _408  and  _409
REMARK  171  A    between atoms: _412  and  _414
REMARK  172  A    between atoms: _414  and  _415
REMARK  173  A    between atoms: _417  and  _419
REMARK  174  A    between atoms: _419  and  _420
REMARK  175  A    between atoms: _422  and  _424
REMARK  176  A    between atoms: _424  and  _425
REMARK  177  A    between atoms: _424  and  _427
REMARK  178  A    between atoms: _427  and  _428
REMARK  179  A    between atoms: _434  and  _436
REMARK  180  A    between atoms: _436  and  _437
REMARK  181  A    between atoms: _436  and  _439
REMARK  182  A    between atoms: _439  and  _440
REMARK  183  A    between atoms: _443  and  _445
REMARK  184  A    between atoms: _445  and  _446
REMARK  185  A    between atoms: _445  and  _448
REMARK  186  A    between atoms: _448  and  _449
REMARK  187  A    between atoms: _452  and  _454
REMARK  188  A    between atoms: _454  and  _455
REMARK  189  A    between atoms: _454  and  _457
REMARK  190  A    between atoms: _457  and  _458
REMARK  191  A    between atoms: _462  and  _463
REMARK  192  A    between atoms: _468  and  _470
REMARK  193  A    between atoms: _470  and  _471
REMARK  194  A    between atoms: _470  and  _473
REMARK  195  A    between atoms: _476  and  _478
REMARK  196  A    between atoms: _478  and  _479
REMARK  197  A    between atoms: _478  and  _481
REMARK  198  A    between atoms: _481  and  _482
REMARK  199  A    between atoms: _487  and  _489
REMARK  200  A    between atoms: _489  and  _490
REMARK  201  A    between atoms: _489  and  _492
REMARK  202  A    between atoms: _492  and  _493
REMARK  203  A    between atoms: _496  and  _498
REMARK  204  A    between atoms: _498  and  _499
REMARK  205  A    between atoms: _498  and  _501
REMARK  206  A    between atoms: _501  and  _502
REMARK  207  A    between atoms: _505  and  _507
REMARK  208  A    between atoms: _507  and  _508
REMARK  209  A    between atoms: _510  and  _512
REMARK  210  A    between atoms: _512  and  _513
REMARK  211  A    between atoms: _512  and  _515
REMARK  212  A    between atoms: _515  and  _516
REMARK  213  A    between atoms: _516  and  _517
REMARK  214  A    between atoms: _517  and  _518
REMARK                            x       y       z     vdW  Elec       q    Type
REMARK                         _______ _______ _______ _____ _____    ______ ____
ROOT
ATOM      1  O   HOH     1     -46.711  73.059  39.800  0.00  0.00    +0.000 OA
ENDROOT
TORSDOF 0
REMARK  Name = ../refined-set-2016/2aqu/2aqu_pocket.pdb
REMARK  214 active torsions:
REMARK  status: ('A' for Active; 'I' for Inactive)
REMARK    1  A    between atoms: _1  and  _3
REMARK    2  A    between atoms: _3  and  _4
REMARK    3  A    between atoms: _3  and  _6
REMARK    4  A    between atoms: _6  and  _7
REMARK    5  A    between atoms: _7  and  _8
REMARK    6  A    between atoms: _8  and  _9
REMARK    7  A    between atoms: _18  and  _20
REMARK    8  A    between atoms: _20  and  _21
REMARK    9  A    between atoms: _20  and  _23
REMARK   10  A    between atoms: _23  and  _24
REMARK   11  A    between atoms: _27  and  _29
REMARK   12  A    between atoms: _29  and  _30
REMARK   13  A    between atoms: _29  and  _32
REMARK   14  A    between atoms: _32  and  _33
REMARK   15  A    between atoms: _36  and  _38
REMARK   16  A    between atoms: _38  and  _39
REMARK   17  A    between atoms: _38  and  _41
REMARK   18  A    between atoms: _41  and  _42
REMARK   19  A    between atoms: _45  and  _47
REMARK   20  A    between atoms: _47  and  _48
REMARK   21  A    between atoms: _47  and  _50
REMARK   22  A    between atoms: _50  and  _51
REMARK   23  A    between atoms: _54  and  _56
REMARK   24  A    between atoms: _56  and  _57
REMARK   25  A    between atoms: _59  and  _61
REMARK   26  A    between atoms: _61  and  _62
REMARK   27  A    between atoms: _65  and  _67
REMARK   28  A    between atoms: _67  and  _68
REMARK   29  A    between atoms: _67  and  _70
REMARK   30  A    between atoms: _70  and  _71
REMARK   31  A    between atoms: _74  and  _76
REMARK   32  A    between atoms: _76  and  _77
REMARK   33  A    between atoms: _76  and  _79
REMARK   34  A    between atoms: _79  and  _80
REMARK   35  A    between atoms: _83  and  _85
REMARK   36  A    between atoms: _85  and  _86
REMARK   37  A    between atoms: _85  and  _88
REMARK   38  A    between atoms: _88  and  _89
REMARK   39  A    between atoms: _92  and  _94
REMARK   40  A    between atoms: _94  and  _95
REMARK   41  A    between atoms: _94  and  _97
REMARK   42  A    between atoms: _100  and  _102
REMARK   43  A    between atoms: _102  and  _103
REMARK   44  A    between atoms: _102  and  _105
REMARK   45  A    between atoms: _105  and  _106
REMARK   46  A    between atoms: _106  and  _107
REMARK   47  A    between atoms: _107  and  _108
REMARK   48  A    between atoms: _108  and  _109
REMARK   49  A    between atoms: _113  and  _115
REMARK   50  A    between atoms: _115  and  _116
REMARK   51  A    between atoms: _115  and  _118
REMARK   52  A    between atoms: _118  and  _119
REMARK   53  A    between atoms: _122  and  _124
REMARK   54  A    between atoms: _124  and  _125
REMARK   55  A    between atoms: _127  and  _129
REMARK   56  A    between atoms: _129  and  _130
REMARK   57  A    between atoms: _132  and  _134
REMARK   58  A    between atoms: _134  and  _135
REMARK   59  A    between atoms: _134  and  _137
REMARK   60  A    between atoms: _137  and  _138
REMARK   61  A    between atoms: _141  and  _143
REMARK   62  A    between atoms: _143  and  _144
REMARK   63  A    between atoms: _146  and  _148
REMARK   64  A    between atoms: _148  and  _149
REMARK   65  A    between atoms: _151  and  _153
REMARK   66  A    between atoms: _153  and  _154
REMARK   67  A    between atoms: _153  and  _156
REMARK   68  A    between atoms: _156  and  _157
REMARK   69  A    between atoms: _163  and  _165
REMARK   70  A    between atoms: _165  and  _166
REMARK   71  A    between atoms: _165  and  _168
REMARK   72  A    between atoms: _168  and  _169
REMARK   73  A    between atoms: _172  and  _174
REMARK   74  A    between atoms: _174  and  _175
REMARK   75  A    between atoms: _174  and  _177
REMARK   76  A    between atoms: _177  and  _178
REMARK   77  A    between atoms: _182  and  _183
REMARK   78  A    between atoms: _188  and  _190
REMARK   79  A    between atoms: _190  and  _191
REMARK   80  A    between atoms: _190  and  _193
REMARK   81  A    between atoms: _193  and  _194
REMARK   82  A    between atoms: _198  and  _199
REMARK   83  A    between atoms: _204  and  _206
REMARK   84  A    between atoms: _206  and  _207
REMARK   85  A    between atoms: _206  and  _209
REMARK   86  A    between atoms: _212  and  _214
REMARK   87  A    between atoms: _214  and  _215
REMARK   88  A    between atoms: _214  and  _217
REMARK   89  A    between atoms: _217  and  _218
REMARK   90  A    between atoms: _223  and  _225
REMARK   91  A    between atoms: _225  and  _226
REMARK   92  A    between atoms: _225  and  _228
REMARK   93  A    between atoms: _228  and  _229
REMARK   94  A    between atoms: _232  and  _234
REMARK   95  A    between atoms: _234  and  _235
REMARK   96  A    between atoms: _234  and  _237
REMARK   97  A    between atoms: _237  and  _238
REMARK   98  A    between atoms: _241  and  _243
REMARK   99  A    between atoms: _243  and  _244
REMARK  100  A    between atoms: _246  and  _248
REMARK  101  A    between atoms: _248  and  _249
REMARK  102  A    between atoms: _248  and  _251
REMARK  103  A    between atoms: _251  and  _252
REMARK  104  A    between atoms: _252  and  _253
REMARK  105  A    between atoms: _253  and  _254
REMARK  106  A    between atoms: _263  and  _265
REMARK  107  A    between atoms: _265  and  _266
REMARK  108  A    between atoms: _265  and  _268
REMARK  109  A    between atoms: _268  and  _269
REMARK  110  A    between atoms: _269  and  _270
REMARK  111  A    between atoms: _270  and  _271
REMARK  112  A    between atoms: _280  and  _282
REMARK  113  A    between atoms: _282  and  _283
REMARK  114  A    between atoms: _282  and  _285
REMARK  115  A    between atoms: _285  and  _286
REMARK  116  A    between atoms: _289  and  _291
REMARK  117  A    between atoms: _291  and  _292
REMARK  118  A    between atoms: _291  and  _294
REMARK  119  A    between atoms: _294  and  _295
REMARK  120  A    between atoms: _298  and  _300
REMARK  121  A    between atoms: _300  and  _301
REMARK  122  A    between atoms: _300  and  _303
REMARK  123  A    between atoms: _303  and  _304
REMARK  124  A    between atoms: _307  and  _309
REMARK  125  A    between atoms: _309  and  _310
REMARK  126  A    between atoms: _309  and  _312
REMARK  127  A    between atoms: _312  and  _313
REMARK  128  A    between atoms: _316  and  _318
REMARK  129  A    between atoms: _318  and  _319
REMARK  130  A    between atoms: _321  and  _323
REMARK  131  A    between atoms: _323  and  _324
REMARK  132  A    between atoms: _327  and  _329
REMARK  133  A    between atoms: _329  and  _330
REMARK  134  A    between atoms: _329  and  _332
REMARK  135  A    between atoms: _332  and  _333
REMARK  136  A    between atoms: _336  and  _338
REMARK  137  A    between atoms: _338  and  _339
REMARK  138  A    between atoms: _338  and  _341
REMARK  139  A    between atoms: _341  and  _342
REMARK  140  A    between atoms: _345  and  _347
REMARK  141  A    between atoms: _347  and  _348
REMARK  142  A    between atoms: _347  and  _350
REMARK  143  A    between atoms: _350  and  _351
REMARK  144  A    between atoms: _354  and  _356
REMARK  145  A    between atoms: _356  and  _357
REMARK  146  A    between atoms: _356  and  _359
REMARK  147  A    between atoms: _362  and  _364
REMARK  148  A    between atoms: _364  and  _365
REMARK  149  A    between atoms: _364  and  _367
REMARK  150  A    between atoms: _367  and  _368
REMARK  151  A    between atoms: _368  and  _369
REMARK  152  A    between atoms: _369  and  _370
REMARK  153  A    between atoms: _370  and  _371
REMARK  154  A    between atoms: _375  and  _377
REMARK  155  A    between atoms: _377  and  _378
REMARK  156  A    between atoms: _377  and  _380
REMARK  157  A    between atoms: _380  and  _381
REMARK  158  A    between atoms: _381  and  _382
REMARK  159  A    between atoms: _384  and  _386
REMARK  160  A    between atoms: _386  and  _387
REMARK  161  A    between atoms: _386  and  _389
REMARK  162  A    between atoms: _389  and  _390
REMARK  163  A    between atoms: _393  and  _395
REMARK  164  A    between atoms: _395  and  _396
REMARK  165  A    between atoms: _398  and  _400
REMARK  166  A    between atoms: _400  and  _401
REMARK  167  A    between atoms: _403  and  _405
REMARK  168  A    between atoms: _405  and  _406
REMARK  169  A    between atoms: _405  and  _408
REMARK  170  A    between atoms: _408  and  _409
REMARK  171  A    between atoms: _412  and  _414
REMARK  172  A    between atoms: _414  and  _415
REMARK  173  A    between atoms: _417  and  _419
REMARK  174  A    between atoms: _419  and  _420
REMARK  175  A    between atoms: _422  and  _424
REMARK  176  A    between atoms: _424  and  _425
REMARK  177  A    between atoms: _424  and  _427
REMARK  178  A    between atoms: _427  and  _428
REMARK  179  A    between atoms: _434  and  _436
REMARK  180  A    between atoms: _436  and  _437
REMARK  181  A    between atoms: _436  and  _439
REMARK  182  A    between atoms: _439  and  _440
REMARK  183  A    between atoms: _443  and  _445
REMARK  184  A    between atoms: _445  and  _446
REMARK  185  A    between atoms: _445  and  _448
REMARK  186  A    between atoms: _448  and  _449
REMARK  187  A    between atoms: _452  and  _454
REMARK  188  A    between atoms: _454  and  _455
REMARK  189  A    between atoms: _454  and  _457
REMARK  190  A    between atoms: _457  and  _458
REMARK  191  A    between atoms: _462  and  _463
REMARK  192  A    between atoms: _468  and  _470
REMARK  193  A    between atoms: _470  and  _471
REMARK  194  A    between atoms: _470  and  _473
REMARK  195  A    between atoms: _476  and  _478
REMARK  196  A    between atoms: _478  and  _479
REMARK  197  A    between atoms: _478  and  _481
REMARK  198  A    between atoms: _481  and  _482
REMARK  199  A    between atoms: _487  and  _489
REMARK  200  A    between atoms: _489  and  _490
REMARK  201  A    between atoms: _489  and  _492
REMARK  202  A    between atoms: _492  and  _493
REMARK  203  A    between atoms: _496  and  _498
REMARK  204  A    between atoms: _498  and  _499
REMARK  205  A    between atoms: _498  and  _501
REMARK  206  A    between atoms: _501  and  _502
REMARK  207  A    between atoms: _505  and  _507
REMARK  208  A    between atoms: _507  and  _508
REMARK  209  A    between atoms: _510  and  _512
REMARK  210  A    between atoms: _512  and  _513
REMARK  211  A    between atoms: _512  and  _515
REMARK  212  A    between atoms: _515  and  _516
REMARK  213  A    between atoms: _516  and  _517
REMARK  214  A    between atoms: _517  and  _518
REMARK                            x       y       z     vdW  Elec       q    Type
REMARK                         _______ _______ _______ _____ _____    ______ ____
ROOT
ATOM      1  O   HOH     1     -34.732  75.596  25.198  0.00  0.00    +0.000 OA
ENDROOT
TORSDOF 0
REMARK  Name = ../refined-set-2016/2aqu/2aqu_pocket.pdb
REMARK  214 active torsions:
REMARK  status: ('A' for Active; 'I' for Inactive)
REMARK    1  A    between atoms: _1  and  _3
REMARK    2  A    between atoms: _3  and  _4
REMARK    3  A    between atoms: _3  and  _6
REMARK    4  A    between atoms: _6  and  _7
REMARK    5  A    between atoms: _7  and  _8
REMARK    6  A    between atoms: _8  and  _9
REMARK    7  A    between atoms: _18  and  _20
REMARK    8  A    between atoms: _20  and  _21
REMARK    9  A    between atoms: _20  and  _23
REMARK   10  A    between atoms: _23  and  _24
REMARK   11  A    between atoms: _27  and  _29
REMARK   12  A    between atoms: _29  and  _30
REMARK   13  A    between atoms: _29  and  _32
REMARK   14  A    between atoms: _32  and  _33
REMARK   15  A    between atoms: _36  and  _38
REMARK   16  A    between atoms: _38  and  _39
REMARK   17  A    between atoms: _38  and  _41
REMARK   18  A    between atoms: _41  and  _42
REMARK   19  A    between atoms: _45  and  _47
REMARK   20  A    between atoms: _47  and  _48
REMARK   21  A    between atoms: _47  and  _50
REMARK   22  A    between atoms: _50  and  _51
REMARK   23  A    between atoms: _54  and  _56
REMARK   24  A    between atoms: _56  and  _57
REMARK   25  A    between atoms: _59  and  _61
REMARK   26  A    between atoms: _61  and  _62
REMARK   27  A    between atoms: _65  and  _67
REMARK   28  A    between atoms: _67  and  _68
REMARK   29  A    between atoms: _67  and  _70
REMARK   30  A    between atoms: _70  and  _71
REMARK   31  A    between atoms: _74  and  _76
REMARK   32  A    between atoms: _76  and  _77
REMARK   33  A    between atoms: _76  and  _79
REMARK   34  A    between atoms: _79  and  _80
REMARK   35  A    between atoms: _83  and  _85
REMARK   36  A    between atoms: _85  and  _86
REMARK   37  A    between atoms: _85  and  _88
REMARK   38  A    between atoms: _88  and  _89
REMARK   39  A    between atoms: _92  and  _94
REMARK   40  A    between atoms: _94  and  _95
REMARK   41  A    between atoms: _94  and  _97
REMARK   42  A    between atoms: _100  and  _102
REMARK   43  A    between atoms: _102  and  _103
REMARK   44  A    between atoms: _102  and  _105
REMARK   45  A    between atoms: _105  and  _106
REMARK   46  A    between atoms: _106  and  _107
REMARK   47  A    between atoms: _107  and  _108
REMARK   48  A    between atoms: _108  and  _109
REMARK   49  A    between atoms: _113  and  _115
REMARK   50  A    between atoms: _115  and  _116
REMARK   51  A    between atoms: _115  and  _118
REMARK   52  A    between atoms: _118  and  _119
REMARK   53  A    between atoms: _122  and  _124
REMARK   54  A    between atoms: _124  and  _125
REMARK   55  A    between atoms: _127  and  _129
REMARK   56  A    between atoms: _129  and  _130
REMARK   57  A    between atoms: _132  and  _134
REMARK   58  A    between atoms: _134  and  _135
REMARK   59  A    between atoms: _134  and  _137
REMARK   60  A    between atoms: _137  and  _138
REMARK   61  A    between atoms: _141  and  _143
REMARK   62  A    between atoms: _143  and  _144
REMARK   63  A    between atoms: _146  and  _148
REMARK   64  A    between atoms: _148  and  _149
REMARK   65  A    between atoms: _151  and  _153
REMARK   66  A    between atoms: _153  and  _154
REMARK   67  A    between atoms: _153  and  _156
REMARK   68  A    between atoms: _156  and  _157
REMARK   69  A    between atoms: _163  and  _165
REMARK   70  A    between atoms: _165  and  _166
REMARK   71  A    between atoms: _165  and  _168
REMARK   72  A    between atoms: _168  and  _169
REMARK   73  A    between atoms: _172  and  _174
REMARK   74  A    between atoms: _174  and  _175
REMARK   75  A    between atoms: _174  and  _177
REMARK   76  A    between atoms: _177  and  _178
REMARK   77  A    between atoms: _182  and  _183
REMARK   78  A    between atoms: _188  and  _190
REMARK   79  A    between atoms: _190  and  _191
REMARK   80  A    between atoms: _190  and  _193
REMARK   81  A    between atoms: _193  and  _194
REMARK   82  A    between atoms: _198  and  _199
REMARK   83  A    between atoms: _204  and  _206
REMARK   84  A    between atoms: _206  and  _207
REMARK   85  A    between atoms: _206  and  _209
REMARK   86  A    between atoms: _212  and  _214
REMARK   87  A    between atoms: _214  and  _215
REMARK   88  A    between atoms: _214  and  _217
REMARK   89  A    between atoms: _217  and  _218
REMARK   90  A    between atoms: _223  and  _225
REMARK   91  A    between atoms: _225  and  _226
REMARK   92  A    between atoms: _225  and  _228
REMARK   93  A    between atoms: _228  and  _229
REMARK   94  A    between atoms: _232  and  _234
REMARK   95  A    between atoms: _234  and  _235
REMARK   96  A    between atoms: _234  and  _237
REMARK   97  A    between atoms: _237  and  _238
REMARK   98  A    between atoms: _241  and  _243
REMARK   99  A    between atoms: _243  and  _244
REMARK  100  A    between atoms: _246  and  _248
REMARK  101  A    between atoms: _248  and  _249
REMARK  102  A    between atoms: _248  and  _251
REMARK  103  A    between atoms: _251  and  _252
REMARK  104  A    between atoms: _252  and  _253
REMARK  105  A    between atoms: _253  and  _254
REMARK  106  A    between atoms: _263  and  _265
REMARK  107  A    between atoms: _265  and  _266
REMARK  108  A    between atoms: _265  and  _268
REMARK  109  A    between atoms: _268  and  _269
REMARK  110  A    between atoms: _269  and  _270
REMARK  111  A    between atoms: _270  and  _271
REMARK  112  A    between atoms: _280  and  _282
REMARK  113  A    between atoms: _282  and  _283
REMARK  114  A    between atoms: _282  and  _285
REMARK  115  A    between atoms: _285  and  _286
REMARK  116  A    between atoms: _289  and  _291
REMARK  117  A    between atoms: _291  and  _292
REMARK  118  A    between atoms: _291  and  _294
REMARK  119  A    between atoms: _294  and  _295
REMARK  120  A    between atoms: _298  and  _300
REMARK  121  A    between atoms: _300  and  _301
REMARK  122  A    between atoms: _300  and  _303
REMARK  123  A    between atoms: _303  and  _304
REMARK  124  A    between atoms: _307  and  _309
REMARK  125  A    between atoms: _309  and  _310
REMARK  126  A    between atoms: _309  and  _312
REMARK  127  A    between atoms: _312  and  _313
REMARK  128  A    between atoms: _316  and  _318
REMARK  129  A    between atoms: _318  and  _319
REMARK  130  A    between atoms: _321  and  _323
REMARK  131  A    between atoms: _323  and  _324
REMARK  132  A    between atoms: _327  and  _329
REMARK  133  A    between atoms: _329  and  _330
REMARK  134  A    between atoms: _329  and  _332
REMARK  135  A    between atoms: _332  and  _333
REMARK  136  A    between atoms: _336  and  _338
REMARK  137  A    between atoms: _338  and  _339
REMARK  138  A    between atoms: _338  and  _341
REMARK  139  A    between atoms: _341  and  _342
REMARK  140  A    between atoms: _345  and  _347
REMARK  141  A    between atoms: _347  and  _348
REMARK  142  A    between atoms: _347  and  _350
REMARK  143  A    between atoms: _350  and  _351
REMARK  144  A    between atoms: _354  and  _356
REMARK  145  A    between atoms: _356  and  _357
REMARK  146  A    between atoms: _356  and  _359
REMARK  147  A    between atoms: _362  and  _364
REMARK  148  A    between atoms: _364  and  _365
REMARK  149  A    between atoms: _364  and  _367
REMARK  150  A    between atoms: _367  and  _368
REMARK  151  A    between atoms: _368  and  _369
REMARK  152  A    between atoms: _369  and  _370
REMARK  153  A    between atoms: _370  and  _371
REMARK  154  A    between atoms: _375  and  _377
REMARK  155  A    between atoms: _377  and  _378
REMARK  156  A    between atoms: _377  and  _380
REMARK  157  A    between atoms: _380  and  _381
REMARK  158  A    between atoms: _381  and  _382
REMARK  159  A    between atoms: _384  and  _386
REMARK  160  A    between atoms: _386  and  _387
REMARK  161  A    between atoms: _386  and  _389
REMARK  162  A    between atoms: _389  and  _390
REMARK  163  A    between atoms: _393  and  _395
REMARK  164  A    between atoms: _395  and  _396
REMARK  165  A    between atoms: _398  and  _400
REMARK  166  A    between atoms: _400  and  _401
REMARK  167  A    between atoms: _403  and  _405
REMARK  168  A    between atoms: _405  and  _406
REMARK  169  A    between atoms: _405  and  _408
REMARK  170  A    between atoms: _408  and  _409
REMARK  171  A    between atoms: _412  and  _414
REMARK  172  A    between atoms: _414  and  _415
REMARK  173  A    between atoms: _417  and  _419
REMARK  174  A    between atoms: _419  and  _420
REMARK  175  A    between atoms: _422  and  _424
REMARK  176  A    between atoms: _424  and  _425
REMARK  177  A    between atoms: _424  and  _427
REMARK  178  A    between atoms: _427  and  _428
REMARK  179  A    between atoms: _434  and  _436
REMARK  180  A    between atoms: _436  and  _437
REMARK  181  A    between atoms: _436  and  _439
REMARK  182  A    between atoms: _439  and  _440
REMARK  183  A    between atoms: _443  and  _445
REMARK  184  A    between atoms: _445  and  _446
REMARK  185  A    between atoms: _445  and  _448
REMARK  186  A    between atoms: _448  and  _449
REMARK  187  A    between atoms: _452  and  _454
REMARK  188  A    between atoms: _454  and  _455
REMARK  189  A    between atoms: _454  and  _457
REMARK  190  A    between atoms: _457  and  _458
REMARK  191  A    between atoms: _462  and  _463
REMARK  192  A    between atoms: _468  and  _470
REMARK  193  A    between atoms: _470  and  _471
REMARK  194  A    between atoms: _470  and  _473
REMARK  195  A    between atoms: _476  and  _478
REMARK  196  A    between atoms: _478  and  _479
REMARK  197  A    between atoms: _478  and  _481
REMARK  198  A    between atoms: _481  and  _482
REMARK  199  A    between atoms: _487  and  _489
REMARK  200  A    between atoms: _489  and  _490
REMARK  201  A    between atoms: _489  and  _492
REMARK  202  A    between atoms: _492  and  _493
REMARK  203  A    between atoms: _496  and  _498
REMARK  204  A    between atoms: _498  and  _499
REMARK  205  A    between atoms: _498  and  _501
REMARK  206  A    between atoms: _501  and  _502
REMARK  207  A    between atoms: _505  and  _507
REMARK  208  A    between atoms: _507  and  _508
REMARK  209  A    between atoms: _510  and  _512
REMARK  210  A    between atoms: _512  and  _513
REMARK  211  A    between atoms: _512  and  _515
REMARK  212  A    between atoms: _515  and  _516
REMARK  213  A    between atoms: _516  and  _517
REMARK  214  A    between atoms: _517  and  _518
REMARK                            x       y       z     vdW  Elec       q    Type
REMARK                         _______ _______ _______ _____ _____    ______ ____
ROOT
ATOM      1  O   HOH     1     -43.489  70.919  15.443  0.00  0.00    +0.000 OA
ENDROOT
TORSDOF 0
REMARK  Name = ../refined-set-2016/2aqu/2aqu_pocket.pdb
REMARK  214 active torsions:
REMARK  status: ('A' for Active; 'I' for Inactive)
REMARK    1  A    between atoms: _1  and  _3
REMARK    2  A    between atoms: _3  and  _4
REMARK    3  A    between atoms: _3  and  _6
REMARK    4  A    between atoms: _6  and  _7
REMARK    5  A    between atoms: _7  and  _8
REMARK    6  A    between atoms: _8  and  _9
REMARK    7  A    between atoms: _18  and  _20
REMARK    8  A    between atoms: _20  and  _21
REMARK    9  A    between atoms: _20  and  _23
REMARK   10  A    between atoms: _23  and  _24
REMARK   11  A    between atoms: _27  and  _29
REMARK   12  A    between atoms: _29  and  _30
REMARK   13  A    between atoms: _29  and  _32
REMARK   14  A    between atoms: _32  and  _33
REMARK   15  A    between atoms: _36  and  _38
REMARK   16  A    between atoms: _38  and  _39
REMARK   17  A    between atoms: _38  and  _41
REMARK   18  A    between atoms: _41  and  _42
REMARK   19  A    between atoms: _45  and  _47
REMARK   20  A    between atoms: _47  and  _48
REMARK   21  A    between atoms: _47  and  _50
REMARK   22  A    between atoms: _50  and  _51
REMARK   23  A    between atoms: _54  and  _56
REMARK   24  A    between atoms: _56  and  _57
REMARK   25  A    between atoms: _59  and  _61
REMARK   26  A    between atoms: _61  and  _62
REMARK   27  A    between atoms: _65  and  _67
REMARK   28  A    between atoms: _67  and  _68
REMARK   29  A    between atoms: _67  and  _70
REMARK   30  A    between atoms: _70  and  _71
REMARK   31  A    between atoms: _74  and  _76
REMARK   32  A    between atoms: _76  and  _77
REMARK   33  A    between atoms: _76  and  _79
REMARK   34  A    between atoms: _79  and  _80
REMARK   35  A    between atoms: _83  and  _85
REMARK   36  A    between atoms: _85  and  _86
REMARK   37  A    between atoms: _85  and  _88
REMARK   38  A    between atoms: _88  and  _89
REMARK   39  A    between atoms: _92  and  _94
REMARK   40  A    between atoms: _94  and  _95
REMARK   41  A    between atoms: _94  and  _97
REMARK   42  A    between atoms: _100  and  _102
REMARK   43  A    between atoms: _102  and  _103
REMARK   44  A    between atoms: _102  and  _105
REMARK   45  A    between atoms: _105  and  _106
REMARK   46  A    between atoms: _106  and  _107
REMARK   47  A    between atoms: _107  and  _108
REMARK   48  A    between atoms: _108  and  _109
REMARK   49  A    between atoms: _113  and  _115
REMARK   50  A    between atoms: _115  and  _116
REMARK   51  A    between atoms: _115  and  _118
REMARK   52  A    between atoms: _118  and  _119
REMARK   53  A    between atoms: _122  and  _124
REMARK   54  A    between atoms: _124  and  _125
REMARK   55  A    between atoms: _127  and  _129
REMARK   56  A    between atoms: _129  and  _130
REMARK   57  A    between atoms: _132  and  _134
REMARK   58  A    between atoms: _134  and  _135
REMARK   59  A    between atoms: _134  and  _137
REMARK   60  A    between atoms: _137  and  _138
REMARK   61  A    between atoms: _141  and  _143
REMARK   62  A    between atoms: _143  and  _144
REMARK   63  A    between atoms: _146  and  _148
REMARK   64  A    between atoms: _148  and  _149
REMARK   65  A    between atoms: _151  and  _153
REMARK   66  A    between atoms: _153  and  _154
REMARK   67  A    between atoms: _153  and  _156
REMARK   68  A    between atoms: _156  and  _157
REMARK   69  A    between atoms: _163  and  _165
REMARK   70  A    between atoms: _165  and  _166
REMARK   71  A    between atoms: _165  and  _168
REMARK   72  A    between atoms: _168  and  _169
REMARK   73  A    between atoms: _172  and  _174
REMARK   74  A    between atoms: _174  and  _175
REMARK   75  A    between atoms: _174  and  _177
REMARK   76  A    between atoms: _177  and  _178
REMARK   77  A    between atoms: _182  and  _183
REMARK   78  A    between atoms: _188  and  _190
REMARK   79  A    between atoms: _190  and  _191
REMARK   80  A    between atoms: _190  and  _193
REMARK   81  A    between atoms: _193  and  _194
REMARK   82  A    between atoms: _198  and  _199
REMARK   83  A    between atoms: _204  and  _206
REMARK   84  A    between atoms: _206  and  _207
REMARK   85  A    between atoms: _206  and  _209
REMARK   86  A    between atoms: _212  and  _214
REMARK   87  A    between atoms: _214  and  _215
REMARK   88  A    between atoms: _214  and  _217
REMARK   89  A    between atoms: _217  and  _218
REMARK   90  A    between atoms: _223  and  _225
REMARK   91  A    between atoms: _225  and  _226
REMARK   92  A    between atoms: _225  and  _228
REMARK   93  A    between atoms: _228  and  _229
REMARK   94  A    between atoms: _232  and  _234
REMARK   95  A    between atoms: _234  and  _235
REMARK   96  A    between atoms: _234  and  _237
REMARK   97  A    between atoms: _237  and  _238
REMARK   98  A    between atoms: _241  and  _243
REMARK   99  A    between atoms: _243  and  _244
REMARK  100  A    between atoms: _246  and  _248
REMARK  101  A    between atoms: _248  and  _249
REMARK  102  A    between atoms: _248  and  _251
REMARK  103  A    between atoms: _251  and  _252
REMARK  104  A    between atoms: _252  and  _253
REMARK  105  A    between atoms: _253  and  _254
REMARK  106  A    between atoms: _263  and  _265
REMARK  107  A    between atoms: _265  and  _266
REMARK  108  A    between atoms: _265  and  _268
REMARK  109  A    between atoms: _268  and  _269
REMARK  110  A    between atoms: _269  and  _270
REMARK  111  A    between atoms: _270  and  _271
REMARK  112  A    between atoms: _280  and  _282
REMARK  113  A    between atoms: _282  and  _283
REMARK  114  A    between atoms: _282  and  _285
REMARK  115  A    between atoms: _285  and  _286
REMARK  116  A    between atoms: _289  and  _291
REMARK  117  A    between atoms: _291  and  _292
REMARK  118  A    between atoms: _291  and  _294
REMARK  119  A    between atoms: _294  and  _295
REMARK  120  A    between atoms: _298  and  _300
REMARK  121  A    between atoms: _300  and  _301
REMARK  122  A    between atoms: _300  and  _303
REMARK  123  A    between atoms: _303  and  _304
REMARK  124  A    between atoms: _307  and  _309
REMARK  125  A    between atoms: _309  and  _310
REMARK  126  A    between atoms: _309  and  _312
REMARK  127  A    between atoms: _312  and  _313
REMARK  128  A    between atoms: _316  and  _318
REMARK  129  A    between atoms: _318  and  _319
REMARK  130  A    between atoms: _321  and  _323
REMARK  131  A    between atoms: _323  and  _324
REMARK  132  A    between atoms: _327  and  _329
REMARK  133  A    between atoms: _329  and  _330
REMARK  134  A    between atoms: _329  and  _332
REMARK  135  A    between atoms: _332  and  _333
REMARK  136  A    between atoms: _336  and  _338
REMARK  137  A    between atoms: _338  and  _339
REMARK  138  A    between atoms: _338  and  _341
REMARK  139  A    between atoms: _341  and  _342
REMARK  140  A    between atoms: _345  and  _347
REMARK  141  A    between atoms: _347  and  _348
REMARK  142  A    between atoms: _347  and  _350
REMARK  143  A    between atoms: _350  and  _351
REMARK  144  A    between atoms: _354  and  _356
REMARK  145  A    between atoms: _356  and  _357
REMARK  146  A    between atoms: _356  and  _359
REMARK  147  A    between atoms: _362  and  _364
REMARK  148  A    between atoms: _364  and  _365
REMARK  149  A    between atoms: _364  and  _367
REMARK  150  A    between atoms: _367  and  _368
REMARK  151  A    between atoms: _368  and  _369
REMARK  152  A    between atoms: _369  and  _370
REMARK  153  A    between atoms: _370  and  _371
REMARK  154  A    between atoms: _375  and  _377
REMARK  155  A    between atoms: _377  and  _378
REMARK  156  A    between atoms: _377  and  _380
REMARK  157  A    between atoms: _380  and  _381
REMARK  158  A    between atoms: _381  and  _382
REMARK  159  A    between atoms: _384  and  _386
REMARK  160  A    between atoms: _386  and  _387
REMARK  161  A    between atoms: _386  and  _389
REMARK  162  A    between atoms: _389  and  _390
REMARK  163  A    between atoms: _393  and  _395
REMARK  164  A    between atoms: _395  and  _396
REMARK  165  A    between atoms: _398  and  _400
REMARK  166  A    between atoms: _400  and  _401
REMARK  167  A    between atoms: _403  and  _405
REMARK  168  A    between atoms: _405  and  _406
REMARK  169  A    between atoms: _405  and  _408
REMARK  170  A    between atoms: _408  and  _409
REMARK  171  A    between atoms: _412  and  _414
REMARK  172  A    between atoms: _414  and  _415
REMARK  173  A    between atoms: _417  and  _419
REMARK  174  A    between atoms: _419  and  _420
REMARK  175  A    between atoms: _422  and  _424
REMARK  176  A    between atoms: _424  and  _425
REMARK  177  A    between atoms: _424  and  _427
REMARK  178  A    between atoms: _427  and  _428
REMARK  179  A    between atoms: _434  and  _436
REMARK  180  A    between atoms: _436  and  _437
REMARK  181  A    between atoms: _436  and  _439
REMARK  182  A    between atoms: _439  and  _440
REMARK  183  A    between atoms: _443  and  _445
REMARK  184  A    between atoms: _445  and  _446
REMARK  185  A    between atoms: _445  and  _448
REMARK  186  A    between atoms: _448  and  _449
REMARK  187  A    between atoms: _452  and  _454
REMARK  188  A    between atoms: _454  and  _455
REMARK  189  A    between atoms: _454  and  _457
REMARK  190  A    between atoms: _457  and  _458
REMARK  191  A    between atoms: _462  and  _463
REMARK  192  A    between atoms: _468  and  _470
REMARK  193  A    between atoms: _470  and  _471
REMARK  194  A    between atoms: _470  and  _473
REMARK  195  A    between atoms: _476  and  _478
REMARK  196  A    between atoms: _478  and  _479
REMARK  197  A    between atoms: _478  and  _481
REMARK  198  A    between atoms: _481  and  _482
REMARK  199  A    between atoms: _487  and  _489
REMARK  200  A    between atoms: _489  and  _490
REMARK  201  A    between atoms: _489  and  _492
REMARK  202  A    between atoms: _492  and  _493
REMARK  203  A    between atoms: _496  and  _498
REMARK  204  A    between atoms: _498  and  _499
REMARK  205  A    between atoms: _498  and  _501
REMARK  206  A    between atoms: _501  and  _502
REMARK  207  A    between atoms: _505  and  _507
REMARK  208  A    between atoms: _507  and  _508
REMARK  209  A    between atoms: _510  and  _512
REMARK  210  A    between atoms: _512  and  _513
REMARK  211  A    between atoms: _512  and  _515
REMARK  212  A    between atoms: _515  and  _516
REMARK  213  A    between atoms: _516  and  _517
REMARK  214  A    between atoms: _517  and  _518
REMARK                            x       y       z     vdW  Elec       q    Type
REMARK                         _______ _______ _______ _____ _____    ______ ____
ROOT
ATOM      1  O   HOH     1     -47.865  64.665  32.492  0.00  0.00    +0.000 OA
ENDROOT
TORSDOF 0
REMARK  Name = ../refined-set-2016/2aqu/2aqu_pocket.pdb
REMARK  214 active torsions:
REMARK  status: ('A' for Active; 'I' for Inactive)
REMARK    1  A    between atoms: _1  and  _3
REMARK    2  A    between atoms: _3  and  _4
REMARK    3  A    between atoms: _3  and  _6
REMARK    4  A    between atoms: _6  and  _7
REMARK    5  A    between atoms: _7  and  _8
REMARK    6  A    between atoms: _8  and  _9
REMARK    7  A    between atoms: _18  and  _20
REMARK    8  A    between atoms: _20  and  _21
REMARK    9  A    between atoms: _20  and  _23
REMARK   10  A    between atoms: _23  and  _24
REMARK   11  A    between atoms: _27  and  _29
REMARK   12  A    between atoms: _29  and  _30
REMARK   13  A    between atoms: _29  and  _32
REMARK   14  A    between atoms: _32  and  _33
REMARK   15  A    between atoms: _36  and  _38
REMARK   16  A    between atoms: _38  and  _39
REMARK   17  A    between atoms: _38  and  _41
REMARK   18  A    between atoms: _41  and  _42
REMARK   19  A    between atoms: _45  and  _47
REMARK   20  A    between atoms: _47  and  _48
REMARK   21  A    between atoms: _47  and  _50
REMARK   22  A    between atoms: _50  and  _51
REMARK   23  A    between atoms: _54  and  _56
REMARK   24  A    between atoms: _56  and  _57
REMARK   25  A    between atoms: _59  and  _61
REMARK   26  A    between atoms: _61  and  _62
REMARK   27  A    between atoms: _65  and  _67
REMARK   28  A    between atoms: _67  and  _68
REMARK   29  A    between atoms: _67  and  _70
REMARK   30  A    between atoms: _70  and  _71
REMARK   31  A    between atoms: _74  and  _76
REMARK   32  A    between atoms: _76  and  _77
REMARK   33  A    between atoms: _76  and  _79
REMARK   34  A    between atoms: _79  and  _80
REMARK   35  A    between atoms: _83  and  _85
REMARK   36  A    between atoms: _85  and  _86
REMARK   37  A    between atoms: _85  and  _88
REMARK   38  A    between atoms: _88  and  _89
REMARK   39  A    between atoms: _92  and  _94
REMARK   40  A    between atoms: _94  and  _95
REMARK   41  A    between atoms: _94  and  _97
REMARK   42  A    between atoms: _100  and  _102
REMARK   43  A    between atoms: _102  and  _103
REMARK   44  A    between atoms: _102  and  _105
REMARK   45  A    between atoms: _105  and  _106
REMARK   46  A    between atoms: _106  and  _107
REMARK   47  A    between atoms: _107  and  _108
REMARK   48  A    between atoms: _108  and  _109
REMARK   49  A    between atoms: _113  and  _115
REMARK   50  A    between atoms: _115  and  _116
REMARK   51  A    between atoms: _115  and  _118
REMARK   52  A    between atoms: _118  and  _119
REMARK   53  A    between atoms: _122  and  _124
REMARK   54  A    between atoms: _124  and  _125
REMARK   55  A    between atoms: _127  and  _129
REMARK   56  A    between atoms: _129  and  _130
REMARK   57  A    between atoms: _132  and  _134
REMARK   58  A    between atoms: _134  and  _135
REMARK   59  A    between atoms: _134  and  _137
REMARK   60  A    between atoms: _137  and  _138
REMARK   61  A    between atoms: _141  and  _143
REMARK   62  A    between atoms: _143  and  _144
REMARK   63  A    between atoms: _146  and  _148
REMARK   64  A    between atoms: _148  and  _149
REMARK   65  A    between atoms: _151  and  _153
REMARK   66  A    between atoms: _153  and  _154
REMARK   67  A    between atoms: _153  and  _156
REMARK   68  A    between atoms: _156  and  _157
REMARK   69  A    between atoms: _163  and  _165
REMARK   70  A    between atoms: _165  and  _166
REMARK   71  A    between atoms: _165  and  _168
REMARK   72  A    between atoms: _168  and  _169
REMARK   73  A    between atoms: _172  and  _174
REMARK   74  A    between atoms: _174  and  _175
REMARK   75  A    between atoms: _174  and  _177
REMARK   76  A    between atoms: _177  and  _178
REMARK   77  A    between atoms: _182  and  _183
REMARK   78  A    between atoms: _188  and  _190
REMARK   79  A    between atoms: _190  and  _191
REMARK   80  A    between atoms: _190  and  _193
REMARK   81  A    between atoms: _193  and  _194
REMARK   82  A    between atoms: _198  and  _199
REMARK   83  A    between atoms: _204  and  _206
REMARK   84  A    between atoms: _206  and  _207
REMARK   85  A    between atoms: _206  and  _209
REMARK   86  A    between atoms: _212  and  _214
REMARK   87  A    between atoms: _214  and  _215
REMARK   88  A    between atoms: _214  and  _217
REMARK   89  A    between atoms: _217  and  _218
REMARK   90  A    between atoms: _223  and  _225
REMARK   91  A    between atoms: _225  and  _226
REMARK   92  A    between atoms: _225  and  _228
REMARK   93  A    between atoms: _228  and  _229
REMARK   94  A    between atoms: _232  and  _234
REMARK   95  A    between atoms: _234  and  _235
REMARK   96  A    between atoms: _234  and  _237
REMARK   97  A    between atoms: _237  and  _238
REMARK   98  A    between atoms: _241  and  _243
REMARK   99  A    between atoms: _243  and  _244
REMARK  100  A    between atoms: _246  and  _248
REMARK  101  A    between atoms: _248  and  _249
REMARK  102  A    between atoms: _248  and  _251
REMARK  103  A    between atoms: _251  and  _252
REMARK  104  A    between atoms: _252  and  _253
REMARK  105  A    between atoms: _253  and  _254
REMARK  106  A    between atoms: _263  and  _265
REMARK  107  A    between atoms: _265  and  _266
REMARK  108  A    between atoms: _265  and  _268
REMARK  109  A    between atoms: _268  and  _269
REMARK  110  A    between atoms: _269  and  _270
REMARK  111  A    between atoms: _270  and  _271
REMARK  112  A    between atoms: _280  and  _282
REMARK  113  A    between atoms: _282  and  _283
REMARK  114  A    between atoms: _282  and  _285
REMARK  115  A    between atoms: _285  and  _286
REMARK  116  A    between atoms: _289  and  _291
REMARK  117  A    between atoms: _291  and  _292
REMARK  118  A    between atoms: _291  and  _294
REMARK  119  A    between atoms: _294  and  _295
REMARK  120  A    between atoms: _298  and  _300
REMARK  121  A    between atoms: _300  and  _301
REMARK  122  A    between atoms: _300  and  _303
REMARK  123  A    between atoms: _303  and  _304
REMARK  124  A    between atoms: _307  and  _309
REMARK  125  A    between atoms: _309  and  _310
REMARK  126  A    between atoms: _309  and  _312
REMARK  127  A    between atoms: _312  and  _313
REMARK  128  A    between atoms: _316  and  _318
REMARK  129  A    between atoms: _318  and  _319
REMARK  130  A    between atoms: _321  and  _323
REMARK  131  A    between atoms: _323  and  _324
REMARK  132  A    between atoms: _327  and  _329
REMARK  133  A    between atoms: _329  and  _330
REMARK  134  A    between atoms: _329  and  _332
REMARK  135  A    between atoms: _332  and  _333
REMARK  136  A    between atoms: _336  and  _338
REMARK  137  A    between atoms: _338  and  _339
REMARK  138  A    between atoms: _338  and  _341
REMARK  139  A    between atoms: _341  and  _342
REMARK  140  A    between atoms: _345  and  _347
REMARK  141  A    between atoms: _347  and  _348
REMARK  142  A    between atoms: _347  and  _350
REMARK  143  A    between atoms: _350  and  _351
REMARK  144  A    between atoms: _354  and  _356
REMARK  145  A    between atoms: _356  and  _357
REMARK  146  A    between atoms: _356  and  _359
REMARK  147  A    between atoms: _362  and  _364
REMARK  148  A    between atoms: _364  and  _365
REMARK  149  A    between atoms: _364  and  _367
REMARK  150  A    between atoms: _367  and  _368
REMARK  151  A    between atoms: _368  and  _369
REMARK  152  A    between atoms: _369  and  _370
REMARK  153  A    between atoms: _370  and  _371
REMARK  154  A    between atoms: _375  and  _377
REMARK  155  A    between atoms: _377  and  _378
REMARK  156  A    between atoms: _377  and  _380
REMARK  157  A    between atoms: _380  and  _381
REMARK  158  A    between atoms: _381  and  _382
REMARK  159  A    between atoms: _384  and  _386
REMARK  160  A    between atoms: _386  and  _387
REMARK  161  A    between atoms: _386  and  _389
REMARK  162  A    between atoms: _389  and  _390
REMARK  163  A    between atoms: _393  and  _395
REMARK  164  A    between atoms: _395  and  _396
REMARK  165  A    between atoms: _398  and  _400
REMARK  166  A    between atoms: _400  and  _401
REMARK  167  A    between atoms: _403  and  _405
REMARK  168  A    between atoms: _405  and  _406
REMARK  169  A    between atoms: _405  and  _408
REMARK  170  A    between atoms: _408  and  _409
REMARK  171  A    between atoms: _412  and  _414
REMARK  172  A    between atoms: _414  and  _415
REMARK  173  A    between atoms: _417  and  _419
REMARK  174  A    between atoms: _419  and  _420
REMARK  175  A    between atoms: _422  and  _424
REMARK  176  A    between atoms: _424  and  _425
REMARK  177  A    between atoms: _424  and  _427
REMARK  178  A    between atoms: _427  and  _428
REMARK  179  A    between atoms: _434  and  _436
REMARK  180  A    between atoms: _436  and  _437
REMARK  181  A    between atoms: _436  and  _439
REMARK  182  A    between atoms: _439  and  _440
REMARK  183  A    between atoms: _443  and  _445
REMARK  184  A    between atoms: _445  and  _446
REMARK  185  A    between atoms: _445  and  _448
REMARK  186  A    between atoms: _448  and  _449
REMARK  187  A    between atoms: _452  and  _454
REMARK  188  A    between atoms: _454  and  _455
REMARK  189  A    between atoms: _454  and  _457
REMARK  190  A    between atoms: _457  and  _458
REMARK  191  A    between atoms: _462  and  _463
REMARK  192  A    between atoms: _468  and  _470
REMARK  193  A    between atoms: _470  and  _471
REMARK  194  A    between atoms: _470  and  _473
REMARK  195  A    between atoms: _476  and  _478
REMARK  196  A    between atoms: _478  and  _479
REMARK  197  A    between atoms: _478  and  _481
REMARK  198  A    between atoms: _481  and  _482
REMARK  199  A    between atoms: _487  and  _489
REMARK  200  A    between atoms: _489  and  _490
REMARK  201  A    between atoms: _489  and  _492
REMARK  202  A    between atoms: _492  and  _493
REMARK  203  A    between atoms: _496  and  _498
REMARK  204  A    between atoms: _498  and  _499
REMARK  205  A    between atoms: _498  and  _501
REMARK  206  A    between atoms: _501  and  _502
REMARK  207  A    between atoms: _505  and  _507
REMARK  208  A    between atoms: _507  and  _508
REMARK  209  A    between atoms: _510  and  _512
REMARK  210  A    between atoms: _512  and  _513
REMARK  211  A    between atoms: _512  and  _515
REMARK  212  A    between atoms: _515  and  _516
REMARK  213  A    between atoms: _516  and  _517
REMARK  214  A    between atoms: _517  and  _518
REMARK                            x       y       z     vdW  Elec       q    Type
REMARK                         _______ _______ _______ _____ _____    ______ ____
ROOT
ATOM      1  O   HOH     1     -38.890  67.350  28.426  0.00  0.00    +0.000 OA
ENDROOT
TORSDOF 0
REMARK  Name = ../refined-set-2016/2aqu/2aqu_pocket.pdb
REMARK  214 active torsions:
REMARK  status: ('A' for Active; 'I' for Inactive)
REMARK    1  A    between atoms: _1  and  _3
REMARK    2  A    between atoms: _3  and  _4
REMARK    3  A    between atoms: _3  and  _6
REMARK    4  A    between atoms: _6  and  _7
REMARK    5  A    between atoms: _7  and  _8
REMARK    6  A    between atoms: _8  and  _9
REMARK    7  A    between atoms: _18  and  _20
REMARK    8  A    between atoms: _20  and  _21
REMARK    9  A    between atoms: _20  and  _23
REMARK   10  A    between atoms: _23  and  _24
REMARK   11  A    between atoms: _27  and  _29
REMARK   12  A    between atoms: _29  and  _30
REMARK   13  A    between atoms: _29  and  _32
REMARK   14  A    between atoms: _32  and  _33
REMARK   15  A    between atoms: _36  and  _38
REMARK   16  A    between atoms: _38  and  _39
REMARK   17  A    between atoms: _38  and  _41
REMARK   18  A    between atoms: _41  and  _42
REMARK   19  A    between atoms: _45  and  _47
REMARK   20  A    between atoms: _47  and  _48
REMARK   21  A    between atoms: _47  and  _50
REMARK   22  A    between atoms: _50  and  _51
REMARK   23  A    between atoms: _54  and  _56
REMARK   24  A    between atoms: _56  and  _57
REMARK   25  A    between atoms: _59  and  _61
REMARK   26  A    between atoms: _61  and  _62
REMARK   27  A    between atoms: _65  and  _67
REMARK   28  A    between atoms: _67  and  _68
REMARK   29  A    between atoms: _67  and  _70
REMARK   30  A    between atoms: _70  and  _71
REMARK   31  A    between atoms: _74  and  _76
REMARK   32  A    between atoms: _76  and  _77
REMARK   33  A    between atoms: _76  and  _79
REMARK   34  A    between atoms: _79  and  _80
REMARK   35  A    between atoms: _83  and  _85
REMARK   36  A    between atoms: _85  and  _86
REMARK   37  A    between atoms: _85  and  _88
REMARK   38  A    between atoms: _88  and  _89
REMARK   39  A    between atoms: _92  and  _94
REMARK   40  A    between atoms: _94  and  _95
REMARK   41  A    between atoms: _94  and  _97
REMARK   42  A    between atoms: _100  and  _102
REMARK   43  A    between atoms: _102  and  _103
REMARK   44  A    between atoms: _102  and  _105
REMARK   45  A    between atoms: _105  and  _106
REMARK   46  A    between atoms: _106  and  _107
REMARK   47  A    between atoms: _107  and  _108
REMARK   48  A    between atoms: _108  and  _109
REMARK   49  A    between atoms: _113  and  _115
REMARK   50  A    between atoms: _115  and  _116
REMARK   51  A    between atoms: _115  and  _118
REMARK   52  A    between atoms: _118  and  _119
REMARK   53  A    between atoms: _122  and  _124
REMARK   54  A    between atoms: _124  and  _125
REMARK   55  A    between atoms: _127  and  _129
REMARK   56  A    between atoms: _129  and  _130
REMARK   57  A    between atoms: _132  and  _134
REMARK   58  A    between atoms: _134  and  _135
REMARK   59  A    between atoms: _134  and  _137
REMARK   60  A    between atoms: _137  and  _138
REMARK   61  A    between atoms: _141  and  _143
REMARK   62  A    between atoms: _143  and  _144
REMARK   63  A    between atoms: _146  and  _148
REMARK   64  A    between atoms: _148  and  _149
REMARK   65  A    between atoms: _151  and  _153
REMARK   66  A    between atoms: _153  and  _154
REMARK   67  A    between atoms: _153  and  _156
REMARK   68  A    between atoms: _156  and  _157
REMARK   69  A    between atoms: _163  and  _165
REMARK   70  A    between atoms: _165  and  _166
REMARK   71  A    between atoms: _165  and  _168
REMARK   72  A    between atoms: _168  and  _169
REMARK   73  A    between atoms: _172  and  _174
REMARK   74  A    between atoms: _174  and  _175
REMARK   75  A    between atoms: _174  and  _177
REMARK   76  A    between atoms: _177  and  _178
REMARK   77  A    between atoms: _182  and  _183
REMARK   78  A    between atoms: _188  and  _190
REMARK   79  A    between atoms: _190  and  _191
REMARK   80  A    between atoms: _190  and  _193
REMARK   81  A    between atoms: _193  and  _194
REMARK   82  A    between atoms: _198  and  _199
REMARK   83  A    between atoms: _204  and  _206
REMARK   84  A    between atoms: _206  and  _207
REMARK   85  A    between atoms: _206  and  _209
REMARK   86  A    between atoms: _212  and  _214
REMARK   87  A    between atoms: _214  and  _215
REMARK   88  A    between atoms: _214  and  _217
REMARK   89  A    between atoms: _217  and  _218
REMARK   90  A    between atoms: _223  and  _225
REMARK   91  A    between atoms: _225  and  _226
REMARK   92  A    between atoms: _225  and  _228
REMARK   93  A    between atoms: _228  and  _229
REMARK   94  A    between atoms: _232  and  _234
REMARK   95  A    between atoms: _234  and  _235
REMARK   96  A    between atoms: _234  and  _237
REMARK   97  A    between atoms: _237  and  _238
REMARK   98  A    between atoms: _241  and  _243
REMARK   99  A    between atoms: _243  and  _244
REMARK  100  A    between atoms: _246  and  _248
REMARK  101  A    between atoms: _248  and  _249
REMARK  102  A    between atoms: _248  and  _251
REMARK  103  A    between atoms: _251  and  _252
REMARK  104  A    between atoms: _252  and  _253
REMARK  105  A    between atoms: _253  and  _254
REMARK  106  A    between atoms: _263  and  _265
REMARK  107  A    between atoms: _265  and  _266
REMARK  108  A    between atoms: _265  and  _268
REMARK  109  A    between atoms: _268  and  _269
REMARK  110  A    between atoms: _269  and  _270
REMARK  111  A    between atoms: _270  and  _271
REMARK  112  A    between atoms: _280  and  _282
REMARK  113  A    between atoms: _282  and  _283
REMARK  114  A    between atoms: _282  and  _285
REMARK  115  A    between atoms: _285  and  _286
REMARK  116  A    between atoms: _289  and  _291
REMARK  117  A    between atoms: _291  and  _292
REMARK  118  A    between atoms: _291  and  _294
REMARK  119  A    between atoms: _294  and  _295
REMARK  120  A    between atoms: _298  and  _300
REMARK  121  A    between atoms: _300  and  _301
REMARK  122  A    between atoms: _300  and  _303
REMARK  123  A    between atoms: _303  and  _304
REMARK  124  A    between atoms: _307  and  _309
REMARK  125  A    between atoms: _309  and  _310
REMARK  126  A    between atoms: _309  and  _312
REMARK  127  A    between atoms: _312  and  _313
REMARK  128  A    between atoms: _316  and  _318
REMARK  129  A    between atoms: _318  and  _319
REMARK  130  A    between atoms: _321  and  _323
REMARK  131  A    between atoms: _323  and  _324
REMARK  132  A    between atoms: _327  and  _329
REMARK  133  A    between atoms: _329  and  _330
REMARK  134  A    between atoms: _329  and  _332
REMARK  135  A    between atoms: _332  and  _333
REMARK  136  A    between atoms: _336  and  _338
REMARK  137  A    between atoms: _338  and  _339
REMARK  138  A    between atoms: _338  and  _341
REMARK  139  A    between atoms: _341  and  _342
REMARK  140  A    between atoms: _345  and  _347
REMARK  141  A    between atoms: _347  and  _348
REMARK  142  A    between atoms: _347  and  _350
REMARK  143  A    between atoms: _350  and  _351
REMARK  144  A    between atoms: _354  and  _356
REMARK  145  A    between atoms: _356  and  _357
REMARK  146  A    between atoms: _356  and  _359
REMARK  147  A    between atoms: _362  and  _364
REMARK  148  A    between atoms: _364  and  _365
REMARK  149  A    between atoms: _364  and  _367
REMARK  150  A    between atoms: _367  and  _368
REMARK  151  A    between atoms: _368  and  _369
REMARK  152  A    between atoms: _369  and  _370
REMARK  153  A    between atoms: _370  and  _371
REMARK  154  A    between atoms: _375  and  _377
REMARK  155  A    between atoms: _377  and  _378
REMARK  156  A    between atoms: _377  and  _380
REMARK  157  A    between atoms: _380  and  _381
REMARK  158  A    between atoms: _381  and  _382
REMARK  159  A    between atoms: _384  and  _386
REMARK  160  A    between atoms: _386  and  _387
REMARK  161  A    between atoms: _386  and  _389
REMARK  162  A    between atoms: _389  and  _390
REMARK  163  A    between atoms: _393  and  _395
REMARK  164  A    between atoms: _395  and  _396
REMARK  165  A    between atoms: _398  and  _400
REMARK  166  A    between atoms: _400  and  _401
REMARK  167  A    between atoms: _403  and  _405
REMARK  168  A    between atoms: _405  and  _406
REMARK  169  A    between atoms: _405  and  _408
REMARK  170  A    between atoms: _408  and  _409
REMARK  171  A    between atoms: _412  and  _414
REMARK  172  A    between atoms: _414  and  _415
REMARK  173  A    between atoms: _417  and  _419
REMARK  174  A    between atoms: _419  and  _420
REMARK  175  A    between atoms: _422  and  _424
REMARK  176  A    between atoms: _424  and  _425
REMARK  177  A    between atoms: _424  and  _427
REMARK  178  A    between atoms: _427  and  _428
REMARK  179  A    between atoms: _434  and  _436
REMARK  180  A    between atoms: _436  and  _437
REMARK  181  A    between atoms: _436  and  _439
REMARK  182  A    between atoms: _439  and  _440
REMARK  183  A    between atoms: _443  and  _445
REMARK  184  A    between atoms: _445  and  _446
REMARK  185  A    between atoms: _445  and  _448
REMARK  186  A    between atoms: _448  and  _449
REMARK  187  A    between atoms: _452  and  _454
REMARK  188  A    between atoms: _454  and  _455
REMARK  189  A    between atoms: _454  and  _457
REMARK  190  A    between atoms: _457  and  _458
REMARK  191  A    between atoms: _462  and  _463
REMARK  192  A    between atoms: _468  and  _470
REMARK  193  A    between atoms: _470  and  _471
REMARK  194  A    between atoms: _470  and  _473
REMARK  195  A    between atoms: _476  and  _478
REMARK  196  A    between atoms: _478  and  _479
REMARK  197  A    between atoms: _478  and  _481
REMARK  198  A    between atoms: _481  and  _482
REMARK  199  A    between atoms: _487  and  _489
REMARK  200  A    between atoms: _489  and  _490
REMARK  201  A    between atoms: _489  and  _492
REMARK  202  A    between atoms: _492  and  _493
REMARK  203  A    between atoms: _496  and  _498
REMARK  204  A    between atoms: _498  and  _499
REMARK  205  A    between atoms: _498  and  _501
REMARK  206  A    between atoms: _501  and  _502
REMARK  207  A    between atoms: _505  and  _507
REMARK  208  A    between atoms: _507  and  _508
REMARK  209  A    between atoms: _510  and  _512
REMARK  210  A    between atoms: _512  and  _513
REMARK  211  A    between atoms: _512  and  _515
REMARK  212  A    between atoms: _515  and  _516
REMARK  213  A    between atoms: _516  and  _517
REMARK  214  A    between atoms: _517  and  _518
REMARK                            x       y       z     vdW  Elec       q    Type
REMARK                         _______ _______ _______ _____ _____    ______ ____
ROOT
ATOM      1  O   HOH     1     -35.432  73.245  18.209  0.00  0.00    +0.000 OA
ENDROOT
TORSDOF 0
REMARK  Name = ../refined-set-2016/2aqu/2aqu_pocket.pdb
REMARK  214 active torsions:
REMARK  status: ('A' for Active; 'I' for Inactive)
REMARK    1  A    between atoms: _1  and  _3
REMARK    2  A    between atoms: _3  and  _4
REMARK    3  A    between atoms: _3  and  _6
REMARK    4  A    between atoms: _6  and  _7
REMARK    5  A    between atoms: _7  and  _8
REMARK    6  A    between atoms: _8  and  _9
REMARK    7  A    between atoms: _18  and  _20
REMARK    8  A    between atoms: _20  and  _21
REMARK    9  A    between atoms: _20  and  _23
REMARK   10  A    between atoms: _23  and  _24
REMARK   11  A    between atoms: _27  and  _29
REMARK   12  A    between atoms: _29  and  _30
REMARK   13  A    between atoms: _29  and  _32
REMARK   14  A    between atoms: _32  and  _33
REMARK   15  A    between atoms: _36  and  _38
REMARK   16  A    between atoms: _38  and  _39
REMARK   17  A    between atoms: _38  and  _41
REMARK   18  A    between atoms: _41  and  _42
REMARK   19  A    between atoms: _45  and  _47
REMARK   20  A    between atoms: _47  and  _48
REMARK   21  A    between atoms: _47  and  _50
REMARK   22  A    between atoms: _50  and  _51
REMARK   23  A    between atoms: _54  and  _56
REMARK   24  A    between atoms: _56  and  _57
REMARK   25  A    between atoms: _59  and  _61
REMARK   26  A    between atoms: _61  and  _62
REMARK   27  A    between atoms: _65  and  _67
REMARK   28  A    between atoms: _67  and  _68
REMARK   29  A    between atoms: _67  and  _70
REMARK   30  A    between atoms: _70  and  _71
REMARK   31  A    between atoms: _74  and  _76
REMARK   32  A    between atoms: _76  and  _77
REMARK   33  A    between atoms: _76  and  _79
REMARK   34  A    between atoms: _79  and  _80
REMARK   35  A    between atoms: _83  and  _85
REMARK   36  A    between atoms: _85  and  _86
REMARK   37  A    between atoms: _85  and  _88
REMARK   38  A    between atoms: _88  and  _89
REMARK   39  A    between atoms: _92  and  _94
REMARK   40  A    between atoms: _94  and  _95
REMARK   41  A    between atoms: _94  and  _97
REMARK   42  A    between atoms: _100  and  _102
REMARK   43  A    between atoms: _102  and  _103
REMARK   44  A    between atoms: _102  and  _105
REMARK   45  A    between atoms: _105  and  _106
REMARK   46  A    between atoms: _106  and  _107
REMARK   47  A    between atoms: _107  and  _108
REMARK   48  A    between atoms: _108  and  _109
REMARK   49  A    between atoms: _113  and  _115
REMARK   50  A    between atoms: _115  and  _116
REMARK   51  A    between atoms: _115  and  _118
REMARK   52  A    between atoms: _118  and  _119
REMARK   53  A    between atoms: _122  and  _124
REMARK   54  A    between atoms: _124  and  _125
REMARK   55  A    between atoms: _127  and  _129
REMARK   56  A    between atoms: _129  and  _130
REMARK   57  A    between atoms: _132  and  _134
REMARK   58  A    between atoms: _134  and  _135
REMARK   59  A    between atoms: _134  and  _137
REMARK   60  A    between atoms: _137  and  _138
REMARK   61  A    between atoms: _141  and  _143
REMARK   62  A    between atoms: _143  and  _144
REMARK   63  A    between atoms: _146  and  _148
REMARK   64  A    between atoms: _148  and  _149
REMARK   65  A    between atoms: _151  and  _153
REMARK   66  A    between atoms: _153  and  _154
REMARK   67  A    between atoms: _153  and  _156
REMARK   68  A    between atoms: _156  and  _157
REMARK   69  A    between atoms: _163  and  _165
REMARK   70  A    between atoms: _165  and  _166
REMARK   71  A    between atoms: _165  and  _168
REMARK   72  A    between atoms: _168  and  _169
REMARK   73  A    between atoms: _172  and  _174
REMARK   74  A    between atoms: _174  and  _175
REMARK   75  A    between atoms: _174  and  _177
REMARK   76  A    between atoms: _177  and  _178
REMARK   77  A    between atoms: _182  and  _183
REMARK   78  A    between atoms: _188  and  _190
REMARK   79  A    between atoms: _190  and  _191
REMARK   80  A    between atoms: _190  and  _193
REMARK   81  A    between atoms: _193  and  _194
REMARK   82  A    between atoms: _198  and  _199
REMARK   83  A    between atoms: _204  and  _206
REMARK   84  A    between atoms: _206  and  _207
REMARK   85  A    between atoms: _206  and  _209
REMARK   86  A    between atoms: _212  and  _214
REMARK   87  A    between atoms: _214  and  _215
REMARK   88  A    between atoms: _214  and  _217
REMARK   89  A    between atoms: _217  and  _218
REMARK   90  A    between atoms: _223  and  _225
REMARK   91  A    between atoms: _225  and  _226
REMARK   92  A    between atoms: _225  and  _228
REMARK   93  A    between atoms: _228  and  _229
REMARK   94  A    between atoms: _232  and  _234
REMARK   95  A    between atoms: _234  and  _235
REMARK   96  A    between atoms: _234  and  _237
REMARK   97  A    between atoms: _237  and  _238
REMARK   98  A    between atoms: _241  and  _243
REMARK   99  A    between atoms: _243  and  _244
REMARK  100  A    between atoms: _246  and  _248
REMARK  101  A    between atoms: _248  and  _249
REMARK  102  A    between atoms: _248  and  _251
REMARK  103  A    between atoms: _251  and  _252
REMARK  104  A    between atoms: _252  and  _253
REMARK  105  A    between atoms: _253  and  _254
REMARK  106  A    between atoms: _263  and  _265
REMARK  107  A    between atoms: _265  and  _266
REMARK  108  A    between atoms: _265  and  _268
REMARK  109  A    between atoms: _268  and  _269
REMARK  110  A    between atoms: _269  and  _270
REMARK  111  A    between atoms: _270  and  _271
REMARK  112  A    between atoms: _280  and  _282
REMARK  113  A    between atoms: _282  and  _283
REMARK  114  A    between atoms: _282  and  _285
REMARK  115  A    between atoms: _285  and  _286
REMARK  116  A    between atoms: _289  and  _291
REMARK  117  A    between atoms: _291  and  _292
REMARK  118  A    between atoms: _291  and  _294
REMARK  119  A    between atoms: _294  and  _295
REMARK  120  A    between atoms: _298  and  _300
REMARK  121  A    between atoms: _300  and  _301
REMARK  122  A    between atoms: _300  and  _303
REMARK  123  A    between atoms: _303  and  _304
REMARK  124  A    between atoms: _307  and  _309
REMARK  125  A    between atoms: _309  and  _310
REMARK  126  A    between atoms: _309  and  _312
REMARK  127  A    between atoms: _312  and  _313
REMARK  128  A    between atoms: _316  and  _318
REMARK  129  A    between atoms: _318  and  _319
REMARK  130  A    between atoms: _321  and  _323
REMARK  131  A    between atoms: _323  and  _324
REMARK  132  A    between atoms: _327  and  _329
REMARK  133  A    between atoms: _329  and  _330
REMARK  134  A    between atoms: _329  and  _332
REMARK  135  A    between atoms: _332  and  _333
REMARK  136  A    between atoms: _336  and  _338
REMARK  137  A    between atoms: _338  and  _339
REMARK  138  A    between atoms: _338  and  _341
REMARK  139  A    between atoms: _341  and  _342
REMARK  140  A    between atoms: _345  and  _347
REMARK  141  A    between atoms: _347  and  _348
REMARK  142  A    between atoms: _347  and  _350
REMARK  143  A    between atoms: _350  and  _351
REMARK  144  A    between atoms: _354  and  _356
REMARK  145  A    between atoms: _356  and  _357
REMARK  146  A    between atoms: _356  and  _359
REMARK  147  A    between atoms: _362  and  _364
REMARK  148  A    between atoms: _364  and  _365
REMARK  149  A    between atoms: _364  and  _367
REMARK  150  A    between atoms: _367  and  _368
REMARK  151  A    between atoms: _368  and  _369
REMARK  152  A    between atoms: _369  and  _370
REMARK  153  A    between atoms: _370  and  _371
REMARK  154  A    between atoms: _375  and  _377
REMARK  155  A    between atoms: _377  and  _378
REMARK  156  A    between atoms: _377  and  _380
REMARK  157  A    between atoms: _380  and  _381
REMARK  158  A    between atoms: _381  and  _382
REMARK  159  A    between atoms: _384  and  _386
REMARK  160  A    between atoms: _386  and  _387
REMARK  161  A    between atoms: _386  and  _389
REMARK  162  A    between atoms: _389  and  _390
REMARK  163  A    between atoms: _393  and  _395
REMARK  164  A    between atoms: _395  and  _396
REMARK  165  A    between atoms: _398  and  _400
REMARK  166  A    between atoms: _400  and  _401
REMARK  167  A    between atoms: _403  and  _405
REMARK  168  A    between atoms: _405  and  _406
REMARK  169  A    between atoms: _405  and  _408
REMARK  170  A    between atoms: _408  and  _409
REMARK  171  A    between atoms: _412  and  _414
REMARK  172  A    between atoms: _414  and  _415
REMARK  173  A    between atoms: _417  and  _419
REMARK  174  A    between atoms: _419  and  _420
REMARK  175  A    between atoms: _422  and  _424
REMARK  176  A    between atoms: _424  and  _425
REMARK  177  A    between atoms: _424  and  _427
REMARK  178  A    between atoms: _427  and  _428
REMARK  179  A    between atoms: _434  and  _436
REMARK  180  A    between atoms: _436  and  _437
REMARK  181  A    between atoms: _436  and  _439
REMARK  182  A    between atoms: _439  and  _440
REMARK  183  A    between atoms: _443  and  _445
REMARK  184  A    between atoms: _445  and  _446
REMARK  185  A    between atoms: _445  and  _448
REMARK  186  A    between atoms: _448  and  _449
REMARK  187  A    between atoms: _452  and  _454
REMARK  188  A    between atoms: _454  and  _455
REMARK  189  A    between atoms: _454  and  _457
REMARK  190  A    between atoms: _457  and  _458
REMARK  191  A    between atoms: _462  and  _463
REMARK  192  A    between atoms: _468  and  _470
REMARK  193  A    between atoms: _470  and  _471
REMARK  194  A    between atoms: _470  and  _473
REMARK  195  A    between atoms: _476  and  _478
REMARK  196  A    between atoms: _478  and  _479
REMARK  197  A    between atoms: _478  and  _481
REMARK  198  A    between atoms: _481  and  _482
REMARK  199  A    between atoms: _487  and  _489
REMARK  200  A    between atoms: _489  and  _490
REMARK  201  A    between atoms: _489  and  _492
REMARK  202  A    between atoms: _492  and  _493
REMARK  203  A    between atoms: _496  and  _498
REMARK  204  A    between atoms: _498  and  _499
REMARK  205  A    between atoms: _498  and  _501
REMARK  206  A    between atoms: _501  and  _502
REMARK  207  A    between atoms: _505  and  _507
REMARK  208  A    between atoms: _507  and  _508
REMARK  209  A    between atoms: _510  and  _512
REMARK  210  A    between atoms: _512  and  _513
REMARK  211  A    between atoms: _512  and  _515
REMARK  212  A    between atoms: _515  and  _516
REMARK  213  A    between atoms: _516  and  _517
REMARK  214  A    between atoms: _517  and  _518
REMARK                            x       y       z     vdW  Elec       q    Type
REMARK                         _______ _______ _______ _____ _____    ______ ____
ROOT
ATOM      1  O   HOH     1     -39.099  77.728  24.010  0.00  0.00    +0.000 OA
ENDROOT
TORSDOF 0
REMARK  Name = ../refined-set-2016/2aqu/2aqu_pocket.pdb
REMARK  214 active torsions:
REMARK  status: ('A' for Active; 'I' for Inactive)
REMARK    1  A    between atoms: _1  and  _3
REMARK    2  A    between atoms: _3  and  _4
REMARK    3  A    between atoms: _3  and  _6
REMARK    4  A    between atoms: _6  and  _7
REMARK    5  A    between atoms: _7  and  _8
REMARK    6  A    between atoms: _8  and  _9
REMARK    7  A    between atoms: _18  and  _20
REMARK    8  A    between atoms: _20  and  _21
REMARK    9  A    between atoms: _20  and  _23
REMARK   10  A    between atoms: _23  and  _24
REMARK   11  A    between atoms: _27  and  _29
REMARK   12  A    between atoms: _29  and  _30
REMARK   13  A    between atoms: _29  and  _32
REMARK   14  A    between atoms: _32  and  _33
REMARK   15  A    between atoms: _36  and  _38
REMARK   16  A    between atoms: _38  and  _39
REMARK   17  A    between atoms: _38  and  _41
REMARK   18  A    between atoms: _41  and  _42
REMARK   19  A    between atoms: _45  and  _47
REMARK   20  A    between atoms: _47  and  _48
REMARK   21  A    between atoms: _47  and  _50
REMARK   22  A    between atoms: _50  and  _51
REMARK   23  A    between atoms: _54  and  _56
REMARK   24  A    between atoms: _56  and  _57
REMARK   25  A    between atoms: _59  and  _61
REMARK   26  A    between atoms: _61  and  _62
REMARK   27  A    between atoms: _65  and  _67
REMARK   28  A    between atoms: _67  and  _68
REMARK   29  A    between atoms: _67  and  _70
REMARK   30  A    between atoms: _70  and  _71
REMARK   31  A    between atoms: _74  and  _76
REMARK   32  A    between atoms: _76  and  _77
REMARK   33  A    between atoms: _76  and  _79
REMARK   34  A    between atoms: _79  and  _80
REMARK   35  A    between atoms: _83  and  _85
REMARK   36  A    between atoms: _85  and  _86
REMARK   37  A    between atoms: _85  and  _88
REMARK   38  A    between atoms: _88  and  _89
REMARK   39  A    between atoms: _92  and  _94
REMARK   40  A    between atoms: _94  and  _95
REMARK   41  A    between atoms: _94  and  _97
REMARK   42  A    between atoms: _100  and  _102
REMARK   43  A    between atoms: _102  and  _103
REMARK   44  A    between atoms: _102  and  _105
REMARK   45  A    between atoms: _105  and  _106
REMARK   46  A    between atoms: _106  and  _107
REMARK   47  A    between atoms: _107  and  _108
REMARK   48  A    between atoms: _108  and  _109
REMARK   49  A    between atoms: _113  and  _115
REMARK   50  A    between atoms: _115  and  _116
REMARK   51  A    between atoms: _115  and  _118
REMARK   52  A    between atoms: _118  and  _119
REMARK   53  A    between atoms: _122  and  _124
REMARK   54  A    between atoms: _124  and  _125
REMARK   55  A    between atoms: _127  and  _129
REMARK   56  A    between atoms: _129  and  _130
REMARK   57  A    between atoms: _132  and  _134
REMARK   58  A    between atoms: _134  and  _135
REMARK   59  A    between atoms: _134  and  _137
REMARK   60  A    between atoms: _137  and  _138
REMARK   61  A    between atoms: _141  and  _143
REMARK   62  A    between atoms: _143  and  _144
REMARK   63  A    between atoms: _146  and  _148
REMARK   64  A    between atoms: _148  and  _149
REMARK   65  A    between atoms: _151  and  _153
REMARK   66  A    between atoms: _153  and  _154
REMARK   67  A    between atoms: _153  and  _156
REMARK   68  A    between atoms: _156  and  _157
REMARK   69  A    between atoms: _163  and  _165
REMARK   70  A    between atoms: _165  and  _166
REMARK   71  A    between atoms: _165  and  _168
REMARK   72  A    between atoms: _168  and  _169
REMARK   73  A    between atoms: _172  and  _174
REMARK   74  A    between atoms: _174  and  _175
REMARK   75  A    between atoms: _174  and  _177
REMARK   76  A    between atoms: _177  and  _178
REMARK   77  A    between atoms: _182  and  _183
REMARK   78  A    between atoms: _188  and  _190
REMARK   79  A    between atoms: _190  and  _191
REMARK   80  A    between atoms: _190  and  _193
REMARK   81  A    between atoms: _193  and  _194
REMARK   82  A    between atoms: _198  and  _199
REMARK   83  A    between atoms: _204  and  _206
REMARK   84  A    between atoms: _206  and  _207
REMARK   85  A    between atoms: _206  and  _209
REMARK   86  A    between atoms: _212  and  _214
REMARK   87  A    between atoms: _214  and  _215
REMARK   88  A    between atoms: _214  and  _217
REMARK   89  A    between atoms: _217  and  _218
REMARK   90  A    between atoms: _223  and  _225
REMARK   91  A    between atoms: _225  and  _226
REMARK   92  A    between atoms: _225  and  _228
REMARK   93  A    between atoms: _228  and  _229
REMARK   94  A    between atoms: _232  and  _234
REMARK   95  A    between atoms: _234  and  _235
REMARK   96  A    between atoms: _234  and  _237
REMARK   97  A    between atoms: _237  and  _238
REMARK   98  A    between atoms: _241  and  _243
REMARK   99  A    between atoms: _243  and  _244
REMARK  100  A    between atoms: _246  and  _248
REMARK  101  A    between atoms: _248  and  _249
REMARK  102  A    between atoms: _248  and  _251
REMARK  103  A    between atoms: _251  and  _252
REMARK  104  A    between atoms: _252  and  _253
REMARK  105  A    between atoms: _253  and  _254
REMARK  106  A    between atoms: _263  and  _265
REMARK  107  A    between atoms: _265  and  _266
REMARK  108  A    between atoms: _265  and  _268
REMARK  109  A    between atoms: _268  and  _269
REMARK  110  A    between atoms: _269  and  _270
REMARK  111  A    between atoms: _270  and  _271
REMARK  112  A    between atoms: _280  and  _282
REMARK  113  A    between atoms: _282  and  _283
REMARK  114  A    between atoms: _282  and  _285
REMARK  115  A    between atoms: _285  and  _286
REMARK  116  A    between atoms: _289  and  _291
REMARK  117  A    between atoms: _291  and  _292
REMARK  118  A    between atoms: _291  and  _294
REMARK  119  A    between atoms: _294  and  _295
REMARK  120  A    between atoms: _298  and  _300
REMARK  121  A    between atoms: _300  and  _301
REMARK  122  A    between atoms: _300  and  _303
REMARK  123  A    between atoms: _303  and  _304
REMARK  124  A    between atoms: _307  and  _309
REMARK  125  A    between atoms: _309  and  _310
REMARK  126  A    between atoms: _309  and  _312
REMARK  127  A    between atoms: _312  and  _313
REMARK  128  A    between atoms: _316  and  _318
REMARK  129  A    between atoms: _318  and  _319
REMARK  130  A    between atoms: _321  and  _323
REMARK  131  A    between atoms: _323  and  _324
REMARK  132  A    between atoms: _327  and  _329
REMARK  133  A    between atoms: _329  and  _330
REMARK  134  A    between atoms: _329  and  _332
REMARK  135  A    between atoms: _332  and  _333
REMARK  136  A    between atoms: _336  and  _338
REMARK  137  A    between atoms: _338  and  _339
REMARK  138  A    between atoms: _338  and  _341
REMARK  139  A    between atoms: _341  and  _342
REMARK  140  A    between atoms: _345  and  _347
REMARK  141  A    between atoms: _347  and  _348
REMARK  142  A    between atoms: _347  and  _350
REMARK  143  A    between atoms: _350  and  _351
REMARK  144  A    between atoms: _354  and  _356
REMARK  145  A    between atoms: _356  and  _357
REMARK  146  A    between atoms: _356  and  _359
REMARK  147  A    between atoms: _362  and  _364
REMARK  148  A    between atoms: _364  and  _365
REMARK  149  A    between atoms: _364  and  _367
REMARK  150  A    between atoms: _367  and  _368
REMARK  151  A    between atoms: _368  and  _369
REMARK  152  A    between atoms: _369  and  _370
REMARK  153  A    between atoms: _370  and  _371
REMARK  154  A    between atoms: _375  and  _377
REMARK  155  A    between atoms: _377  and  _378
REMARK  156  A    between atoms: _377  and  _380
REMARK  157  A    between atoms: _380  and  _381
REMARK  158  A    between atoms: _381  and  _382
REMARK  159  A    between atoms: _384  and  _386
REMARK  160  A    between atoms: _386  and  _387
REMARK  161  A    between atoms: _386  and  _389
REMARK  162  A    between atoms: _389  and  _390
REMARK  163  A    between atoms: _393  and  _395
REMARK  164  A    between atoms: _395  and  _396
REMARK  165  A    between atoms: _398  and  _400
REMARK  166  A    between atoms: _400  and  _401
REMARK  167  A    between atoms: _403  and  _405
REMARK  168  A    between atoms: _405  and  _406
REMARK  169  A    between atoms: _405  and  _408
REMARK  170  A    between atoms: _408  and  _409
REMARK  171  A    between atoms: _412  and  _414
REMARK  172  A    between atoms: _414  and  _415
REMARK  173  A    between atoms: _417  and  _419
REMARK  174  A    between atoms: _419  and  _420
REMARK  175  A    between atoms: _422  and  _424
REMARK  176  A    between atoms: _424  and  _425
REMARK  177  A    between atoms: _424  and  _427
REMARK  178  A    between atoms: _427  and  _428
REMARK  179  A    between atoms: _434  and  _436
REMARK  180  A    between atoms: _436  and  _437
REMARK  181  A    between atoms: _436  and  _439
REMARK  182  A    between atoms: _439  and  _440
REMARK  183  A    between atoms: _443  and  _445
REMARK  184  A    between atoms: _445  and  _446
REMARK  185  A    between atoms: _445  and  _448
REMARK  186  A    between atoms: _448  and  _449
REMARK  187  A    between atoms: _452  and  _454
REMARK  188  A    between atoms: _454  and  _455
REMARK  189  A    between atoms: _454  and  _457
REMARK  190  A    between atoms: _457  and  _458
REMARK  191  A    between atoms: _462  and  _463
REMARK  192  A    between atoms: _468  and  _470
REMARK  193  A    between atoms: _470  and  _471
REMARK  194  A    between atoms: _470  and  _473
REMARK  195  A    between atoms: _476  and  _478
REMARK  196  A    between atoms: _478  and  _479
REMARK  197  A    between atoms: _478  and  _481
REMARK  198  A    between atoms: _481  and  _482
REMARK  199  A    between atoms: _487  and  _489
REMARK  200  A    between atoms: _489  and  _490
REMARK  201  A    between atoms: _489  and  _492
REMARK  202  A    between atoms: _492  and  _493
REMARK  203  A    between atoms: _496  and  _498
REMARK  204  A    between atoms: _498  and  _499
REMARK  205  A    between atoms: _498  and  _501
REMARK  206  A    between atoms: _501  and  _502
REMARK  207  A    between atoms: _505  and  _507
REMARK  208  A    between atoms: _507  and  _508
REMARK  209  A    between atoms: _510  and  _512
REMARK  210  A    between atoms: _512  and  _513
REMARK  211  A    between atoms: _512  and  _515
REMARK  212  A    between atoms: _515  and  _516
REMARK  213  A    between atoms: _516  and  _517
REMARK  214  A    between atoms: _517  and  _518
REMARK                            x       y       z     vdW  Elec       q    Type
REMARK                         _______ _______ _______ _____ _____    ______ ____
ROOT
ATOM      1  O   HOH     1     -37.361  75.647  24.110  0.00  0.00    +0.000 OA
ENDROOT
TORSDOF 0
REMARK  Name = ../refined-set-2016/2aqu/2aqu_pocket.pdb
REMARK  214 active torsions:
REMARK  status: ('A' for Active; 'I' for Inactive)
REMARK    1  A    between atoms: _1  and  _3
REMARK    2  A    between atoms: _3  and  _4
REMARK    3  A    between atoms: _3  and  _6
REMARK    4  A    between atoms: _6  and  _7
REMARK    5  A    between atoms: _7  and  _8
REMARK    6  A    between atoms: _8  and  _9
REMARK    7  A    between atoms: _18  and  _20
REMARK    8  A    between atoms: _20  and  _21
REMARK    9  A    between atoms: _20  and  _23
REMARK   10  A    between atoms: _23  and  _24
REMARK   11  A    between atoms: _27  and  _29
REMARK   12  A    between atoms: _29  and  _30
REMARK   13  A    between atoms: _29  and  _32
REMARK   14  A    between atoms: _32  and  _33
REMARK   15  A    between atoms: _36  and  _38
REMARK   16  A    between atoms: _38  and  _39
REMARK   17  A    between atoms: _38  and  _41
REMARK   18  A    between atoms: _41  and  _42
REMARK   19  A    between atoms: _45  and  _47
REMARK   20  A    between atoms: _47  and  _48
REMARK   21  A    between atoms: _47  and  _50
REMARK   22  A    between atoms: _50  and  _51
REMARK   23  A    between atoms: _54  and  _56
REMARK   24  A    between atoms: _56  and  _57
REMARK   25  A    between atoms: _59  and  _61
REMARK   26  A    between atoms: _61  and  _62
REMARK   27  A    between atoms: _65  and  _67
REMARK   28  A    between atoms: _67  and  _68
REMARK   29  A    between atoms: _67  and  _70
REMARK   30  A    between atoms: _70  and  _71
REMARK   31  A    between atoms: _74  and  _76
REMARK   32  A    between atoms: _76  and  _77
REMARK   33  A    between atoms: _76  and  _79
REMARK   34  A    between atoms: _79  and  _80
REMARK   35  A    between atoms: _83  and  _85
REMARK   36  A    between atoms: _85  and  _86
REMARK   37  A    between atoms: _85  and  _88
REMARK   38  A    between atoms: _88  and  _89
REMARK   39  A    between atoms: _92  and  _94
REMARK   40  A    between atoms: _94  and  _95
REMARK   41  A    between atoms: _94  and  _97
REMARK   42  A    between atoms: _100  and  _102
REMARK   43  A    between atoms: _102  and  _103
REMARK   44  A    between atoms: _102  and  _105
REMARK   45  A    between atoms: _105  and  _106
REMARK   46  A    between atoms: _106  and  _107
REMARK   47  A    between atoms: _107  and  _108
REMARK   48  A    between atoms: _108  and  _109
REMARK   49  A    between atoms: _113  and  _115
REMARK   50  A    between atoms: _115  and  _116
REMARK   51  A    between atoms: _115  and  _118
REMARK   52  A    between atoms: _118  and  _119
REMARK   53  A    between atoms: _122  and  _124
REMARK   54  A    between atoms: _124  and  _125
REMARK   55  A    between atoms: _127  and  _129
REMARK   56  A    between atoms: _129  and  _130
REMARK   57  A    between atoms: _132  and  _134
REMARK   58  A    between atoms: _134  and  _135
REMARK   59  A    between atoms: _134  and  _137
REMARK   60  A    between atoms: _137  and  _138
REMARK   61  A    between atoms: _141  and  _143
REMARK   62  A    between atoms: _143  and  _144
REMARK   63  A    between atoms: _146  and  _148
REMARK   64  A    between atoms: _148  and  _149
REMARK   65  A    between atoms: _151  and  _153
REMARK   66  A    between atoms: _153  and  _154
REMARK   67  A    between atoms: _153  and  _156
REMARK   68  A    between atoms: _156  and  _157
REMARK   69  A    between atoms: _163  and  _165
REMARK   70  A    between atoms: _165  and  _166
REMARK   71  A    between atoms: _165  and  _168
REMARK   72  A    between atoms: _168  and  _169
REMARK   73  A    between atoms: _172  and  _174
REMARK   74  A    between atoms: _174  and  _175
REMARK   75  A    between atoms: _174  and  _177
REMARK   76  A    between atoms: _177  and  _178
REMARK   77  A    between atoms: _182  and  _183
REMARK   78  A    between atoms: _188  and  _190
REMARK   79  A    between atoms: _190  and  _191
REMARK   80  A    between atoms: _190  and  _193
REMARK   81  A    between atoms: _193  and  _194
REMARK   82  A    between atoms: _198  and  _199
REMARK   83  A    between atoms: _204  and  _206
REMARK   84  A    between atoms: _206  and  _207
REMARK   85  A    between atoms: _206  and  _209
REMARK   86  A    between atoms: _212  and  _214
REMARK   87  A    between atoms: _214  and  _215
REMARK   88  A    between atoms: _214  and  _217
REMARK   89  A    between atoms: _217  and  _218
REMARK   90  A    between atoms: _223  and  _225
REMARK   91  A    between atoms: _225  and  _226
REMARK   92  A    between atoms: _225  and  _228
REMARK   93  A    between atoms: _228  and  _229
REMARK   94  A    between atoms: _232  and  _234
REMARK   95  A    between atoms: _234  and  _235
REMARK   96  A    between atoms: _234  and  _237
REMARK   97  A    between atoms: _237  and  _238
REMARK   98  A    between atoms: _241  and  _243
REMARK   99  A    between atoms: _243  and  _244
REMARK  100  A    between atoms: _246  and  _248
REMARK  101  A    between atoms: _248  and  _249
REMARK  102  A    between atoms: _248  and  _251
REMARK  103  A    between atoms: _251  and  _252
REMARK  104  A    between atoms: _252  and  _253
REMARK  105  A    between atoms: _253  and  _254
REMARK  106  A    between atoms: _263  and  _265
REMARK  107  A    between atoms: _265  and  _266
REMARK  108  A    between atoms: _265  and  _268
REMARK  109  A    between atoms: _268  and  _269
REMARK  110  A    between atoms: _269  and  _270
REMARK  111  A    between atoms: _270  and  _271
REMARK  112  A    between atoms: _280  and  _282
REMARK  113  A    between atoms: _282  and  _283
REMARK  114  A    between atoms: _282  and  _285
REMARK  115  A    between atoms: _285  and  _286
REMARK  116  A    between atoms: _289  and  _291
REMARK  117  A    between atoms: _291  and  _292
REMARK  118  A    between atoms: _291  and  _294
REMARK  119  A    between atoms: _294  and  _295
REMARK  120  A    between atoms: _298  and  _300
REMARK  121  A    between atoms: _300  and  _301
REMARK  122  A    between atoms: _300  and  _303
REMARK  123  A    between atoms: _303  and  _304
REMARK  124  A    between atoms: _307  and  _309
REMARK  125  A    between atoms: _309  and  _310
REMARK  126  A    between atoms: _309  and  _312
REMARK  127  A    between atoms: _312  and  _313
REMARK  128  A    between atoms: _316  and  _318
REMARK  129  A    between atoms: _318  and  _319
REMARK  130  A    between atoms: _321  and  _323
REMARK  131  A    between atoms: _323  and  _324
REMARK  132  A    between atoms: _327  and  _329
REMARK  133  A    between atoms: _329  and  _330
REMARK  134  A    between atoms: _329  and  _332
REMARK  135  A    between atoms: _332  and  _333
REMARK  136  A    between atoms: _336  and  _338
REMARK  137  A    between atoms: _338  and  _339
REMARK  138  A    between atoms: _338  and  _341
REMARK  139  A    between atoms: _341  and  _342
REMARK  140  A    between atoms: _345  and  _347
REMARK  141  A    between atoms: _347  and  _348
REMARK  142  A    between atoms: _347  and  _350
REMARK  143  A    between atoms: _350  and  _351
REMARK  144  A    between atoms: _354  and  _356
REMARK  145  A    between atoms: _356  and  _357
REMARK  146  A    between atoms: _356  and  _359
REMARK  147  A    between atoms: _362  and  _364
REMARK  148  A    between atoms: _364  and  _365
REMARK  149  A    between atoms: _364  and  _367
REMARK  150  A    between atoms: _367  and  _368
REMARK  151  A    between atoms: _368  and  _369
REMARK  152  A    between atoms: _369  and  _370
REMARK  153  A    between atoms: _370  and  _371
REMARK  154  A    between atoms: _375  and  _377
REMARK  155  A    between atoms: _377  and  _378
REMARK  156  A    between atoms: _377  and  _380
REMARK  157  A    between atoms: _380  and  _381
REMARK  158  A    between atoms: _381  and  _382
REMARK  159  A    between atoms: _384  and  _386
REMARK  160  A    between atoms: _386  and  _387
REMARK  161  A    between atoms: _386  and  _389
REMARK  162  A    between atoms: _389  and  _390
REMARK  163  A    between atoms: _393  and  _395
REMARK  164  A    between atoms: _395  and  _396
REMARK  165  A    between atoms: _398  and  _400
REMARK  166  A    between atoms: _400  and  _401
REMARK  167  A    between atoms: _403  and  _405
REMARK  168  A    between atoms: _405  and  _406
REMARK  169  A    between atoms: _405  and  _408
REMARK  170  A    between atoms: _408  and  _409
REMARK  171  A    between atoms: _412  and  _414
REMARK  172  A    between atoms: _414  and  _415
REMARK  173  A    between atoms: _417  and  _419
REMARK  174  A    between atoms: _419  and  _420
REMARK  175  A    between atoms: _422  and  _424
REMARK  176  A    between atoms: _424  and  _425
REMARK  177  A    between atoms: _424  and  _427
REMARK  178  A    between atoms: _427  and  _428
REMARK  179  A    between atoms: _434  and  _436
REMARK  180  A    between atoms: _436  and  _437
REMARK  181  A    between atoms: _436  and  _439
REMARK  182  A    between atoms: _439  and  _440
REMARK  183  A    between atoms: _443  and  _445
REMARK  184  A    between atoms: _445  and  _446
REMARK  185  A    between atoms: _445  and  _448
REMARK  186  A    between atoms: _448  and  _449
REMARK  187  A    between atoms: _452  and  _454
REMARK  188  A    between atoms: _454  and  _455
REMARK  189  A    between atoms: _454  and  _457
REMARK  190  A    between atoms: _457  and  _458
REMARK  191  A    between atoms: _462  and  _463
REMARK  192  A    between atoms: _468  and  _470
REMARK  193  A    between atoms: _470  and  _471
REMARK  194  A    between atoms: _470  and  _473
REMARK  195  A    between atoms: _476  and  _478
REMARK  196  A    between atoms: _478  and  _479
REMARK  197  A    between atoms: _478  and  _481
REMARK  198  A    between atoms: _481  and  _482
REMARK  199  A    between atoms: _487  and  _489
REMARK  200  A    between atoms: _489  and  _490
REMARK  201  A    between atoms: _489  and  _492
REMARK  202  A    between atoms: _492  and  _493
REMARK  203  A    between atoms: _496  and  _498
REMARK  204  A    between atoms: _498  and  _499
REMARK  205  A    between atoms: _498  and  _501
REMARK  206  A    between atoms: _501  and  _502
REMARK  207  A    between atoms: _505  and  _507
REMARK  208  A    between atoms: _507  and  _508
REMARK  209  A    between atoms: _510  and  _512
REMARK  210  A    between atoms: _512  and  _513
REMARK  211  A    between atoms: _512  and  _515
REMARK  212  A    between atoms: _515  and  _516
REMARK  213  A    between atoms: _516  and  _517
REMARK  214  A    between atoms: _517  and  _518
REMARK                            x       y       z     vdW  Elec       q    Type
REMARK                         _______ _______ _______ _____ _____    ______ ____
ROOT
ATOM      1  O   HOH     1     -52.512  67.087  32.515  0.00  0.00    +0.000 OA
ENDROOT
TORSDOF 0
REMARK  Name = ../refined-set-2016/2aqu/2aqu_pocket.pdb
REMARK  214 active torsions:
REMARK  status: ('A' for Active; 'I' for Inactive)
REMARK    1  A    between atoms: _1  and  _3
REMARK    2  A    between atoms: _3  and  _4
REMARK    3  A    between atoms: _3  and  _6
REMARK    4  A    between atoms: _6  and  _7
REMARK    5  A    between atoms: _7  and  _8
REMARK    6  A    between atoms: _8  and  _9
REMARK    7  A    between atoms: _18  and  _20
REMARK    8  A    between atoms: _20  and  _21
REMARK    9  A    between atoms: _20  and  _23
REMARK   10  A    between atoms: _23  and  _24
REMARK   11  A    between atoms: _27  and  _29
REMARK   12  A    between atoms: _29  and  _30
REMARK   13  A    between atoms: _29  and  _32
REMARK   14  A    between atoms: _32  and  _33
REMARK   15  A    between atoms: _36  and  _38
REMARK   16  A    between atoms: _38  and  _39
REMARK   17  A    between atoms: _38  and  _41
REMARK   18  A    between atoms: _41  and  _42
REMARK   19  A    between atoms: _45  and  _47
REMARK   20  A    between atoms: _47  and  _48
REMARK   21  A    between atoms: _47  and  _50
REMARK   22  A    between atoms: _50  and  _51
REMARK   23  A    between atoms: _54  and  _56
REMARK   24  A    between atoms: _56  and  _57
REMARK   25  A    between atoms: _59  and  _61
REMARK   26  A    between atoms: _61  and  _62
REMARK   27  A    between atoms: _65  and  _67
REMARK   28  A    between atoms: _67  and  _68
REMARK   29  A    between atoms: _67  and  _70
REMARK   30  A    between atoms: _70  and  _71
REMARK   31  A    between atoms: _74  and  _76
REMARK   32  A    between atoms: _76  and  _77
REMARK   33  A    between atoms: _76  and  _79
REMARK   34  A    between atoms: _79  and  _80
REMARK   35  A    between atoms: _83  and  _85
REMARK   36  A    between atoms: _85  and  _86
REMARK   37  A    between atoms: _85  and  _88
REMARK   38  A    between atoms: _88  and  _89
REMARK   39  A    between atoms: _92  and  _94
REMARK   40  A    between atoms: _94  and  _95
REMARK   41  A    between atoms: _94  and  _97
REMARK   42  A    between atoms: _100  and  _102
REMARK   43  A    between atoms: _102  and  _103
REMARK   44  A    between atoms: _102  and  _105
REMARK   45  A    between atoms: _105  and  _106
REMARK   46  A    between atoms: _106  and  _107
REMARK   47  A    between atoms: _107  and  _108
REMARK   48  A    between atoms: _108  and  _109
REMARK   49  A    between atoms: _113  and  _115
REMARK   50  A    between atoms: _115  and  _116
REMARK   51  A    between atoms: _115  and  _118
REMARK   52  A    between atoms: _118  and  _119
REMARK   53  A    between atoms: _122  and  _124
REMARK   54  A    between atoms: _124  and  _125
REMARK   55  A    between atoms: _127  and  _129
REMARK   56  A    between atoms: _129  and  _130
REMARK   57  A    between atoms: _132  and  _134
REMARK   58  A    between atoms: _134  and  _135
REMARK   59  A    between atoms: _134  and  _137
REMARK   60  A    between atoms: _137  and  _138
REMARK   61  A    between atoms: _141  and  _143
REMARK   62  A    between atoms: _143  and  _144
REMARK   63  A    between atoms: _146  and  _148
REMARK   64  A    between atoms: _148  and  _149
REMARK   65  A    between atoms: _151  and  _153
REMARK   66  A    between atoms: _153  and  _154
REMARK   67  A    between atoms: _153  and  _156
REMARK   68  A    between atoms: _156  and  _157
REMARK   69  A    between atoms: _163  and  _165
REMARK   70  A    between atoms: _165  and  _166
REMARK   71  A    between atoms: _165  and  _168
REMARK   72  A    between atoms: _168  and  _169
REMARK   73  A    between atoms: _172  and  _174
REMARK   74  A    between atoms: _174  and  _175
REMARK   75  A    between atoms: _174  and  _177
REMARK   76  A    between atoms: _177  and  _178
REMARK   77  A    between atoms: _182  and  _183
REMARK   78  A    between atoms: _188  and  _190
REMARK   79  A    between atoms: _190  and  _191
REMARK   80  A    between atoms: _190  and  _193
REMARK   81  A    between atoms: _193  and  _194
REMARK   82  A    between atoms: _198  and  _199
REMARK   83  A    between atoms: _204  and  _206
REMARK   84  A    between atoms: _206  and  _207
REMARK   85  A    between atoms: _206  and  _209
REMARK   86  A    between atoms: _212  and  _214
REMARK   87  A    between atoms: _214  and  _215
REMARK   88  A    between atoms: _214  and  _217
REMARK   89  A    between atoms: _217  and  _218
REMARK   90  A    between atoms: _223  and  _225
REMARK   91  A    between atoms: _225  and  _226
REMARK   92  A    between atoms: _225  and  _228
REMARK   93  A    between atoms: _228  and  _229
REMARK   94  A    between atoms: _232  and  _234
REMARK   95  A    between atoms: _234  and  _235
REMARK   96  A    between atoms: _234  and  _237
REMARK   97  A    between atoms: _237  and  _238
REMARK   98  A    between atoms: _241  and  _243
REMARK   99  A    between atoms: _243  and  _244
REMARK  100  A    between atoms: _246  and  _248
REMARK  101  A    between atoms: _248  and  _249
REMARK  102  A    between atoms: _248  and  _251
REMARK  103  A    between atoms: _251  and  _252
REMARK  104  A    between atoms: _252  and  _253
REMARK  105  A    between atoms: _253  and  _254
REMARK  106  A    between atoms: _263  and  _265
REMARK  107  A    between atoms: _265  and  _266
REMARK  108  A    between atoms: _265  and  _268
REMARK  109  A    between atoms: _268  and  _269
REMARK  110  A    between atoms: _269  and  _270
REMARK  111  A    between atoms: _270  and  _271
REMARK  112  A    between atoms: _280  and  _282
REMARK  113  A    between atoms: _282  and  _283
REMARK  114  A    between atoms: _282  and  _285
REMARK  115  A    between atoms: _285  and  _286
REMARK  116  A    between atoms: _289  and  _291
REMARK  117  A    between atoms: _291  and  _292
REMARK  118  A    between atoms: _291  and  _294
REMARK  119  A    between atoms: _294  and  _295
REMARK  120  A    between atoms: _298  and  _300
REMARK  121  A    between atoms: _300  and  _301
REMARK  122  A    between atoms: _300  and  _303
REMARK  123  A    between atoms: _303  and  _304
REMARK  124  A    between atoms: _307  and  _309
REMARK  125  A    between atoms: _309  and  _310
REMARK  126  A    between atoms: _309  and  _312
REMARK  127  A    between atoms: _312  and  _313
REMARK  128  A    between atoms: _316  and  _318
REMARK  129  A    between atoms: _318  and  _319
REMARK  130  A    between atoms: _321  and  _323
REMARK  131  A    between atoms: _323  and  _324
REMARK  132  A    between atoms: _327  and  _329
REMARK  133  A    between atoms: _329  and  _330
REMARK  134  A    between atoms: _329  and  _332
REMARK  135  A    between atoms: _332  and  _333
REMARK  136  A    between atoms: _336  and  _338
REMARK  137  A    between atoms: _338  and  _339
REMARK  138  A    between atoms: _338  and  _341
REMARK  139  A    between atoms: _341  and  _342
REMARK  140  A    between atoms: _345  and  _347
REMARK  141  A    between atoms: _347  and  _348
REMARK  142  A    between atoms: _347  and  _350
REMARK  143  A    between atoms: _350  and  _351
REMARK  144  A    between atoms: _354  and  _356
REMARK  145  A    between atoms: _356  and  _357
REMARK  146  A    between atoms: _356  and  _359
REMARK  147  A    between atoms: _362  and  _364
REMARK  148  A    between atoms: _364  and  _365
REMARK  149  A    between atoms: _364  and  _367
REMARK  150  A    between atoms: _367  and  _368
REMARK  151  A    between atoms: _368  and  _369
REMARK  152  A    between atoms: _369  and  _370
REMARK  153  A    between atoms: _370  and  _371
REMARK  154  A    between atoms: _375  and  _377
REMARK  155  A    between atoms: _377  and  _378
REMARK  156  A    between atoms: _377  and  _380
REMARK  157  A    between atoms: _380  and  _381
REMARK  158  A    between atoms: _381  and  _382
REMARK  159  A    between atoms: _384  and  _386
REMARK  160  A    between atoms: _386  and  _387
REMARK  161  A    between atoms: _386  and  _389
REMARK  162  A    between atoms: _389  and  _390
REMARK  163  A    between atoms: _393  and  _395
REMARK  164  A    between atoms: _395  and  _396
REMARK  165  A    between atoms: _398  and  _400
REMARK  166  A    between atoms: _400  and  _401
REMARK  167  A    between atoms: _403  and  _405
REMARK  168  A    between atoms: _405  and  _406
REMARK  169  A    between atoms: _405  and  _408
REMARK  170  A    between atoms: _408  and  _409
REMARK  171  A    between atoms: _412  and  _414
REMARK  172  A    between atoms: _414  and  _415
REMARK  173  A    between atoms: _417  and  _419
REMARK  174  A    between atoms: _419  and  _420
REMARK  175  A    between atoms: _422  and  _424
REMARK  176  A    between atoms: _424  and  _425
REMARK  177  A    between atoms: _424  and  _427
REMARK  178  A    between atoms: _427  and  _428
REMARK  179  A    between atoms: _434  and  _436
REMARK  180  A    between atoms: _436  and  _437
REMARK  181  A    between atoms: _436  and  _439
REMARK  182  A    between atoms: _439  and  _440
REMARK  183  A    between atoms: _443  and  _445
REMARK  184  A    between atoms: _445  and  _446
REMARK  185  A    between atoms: _445  and  _448
REMARK  186  A    between atoms: _448  and  _449
REMARK  187  A    between atoms: _452  and  _454
REMARK  188  A    between atoms: _454  and  _455
REMARK  189  A    between atoms: _454  and  _457
REMARK  190  A    between atoms: _457  and  _458
REMARK  191  A    between atoms: _462  and  _463
REMARK  192  A    between atoms: _468  and  _470
REMARK  193  A    between atoms: _470  and  _471
REMARK  194  A    between atoms: _470  and  _473
REMARK  195  A    between atoms: _476  and  _478
REMARK  196  A    between atoms: _478  and  _479
REMARK  197  A    between atoms: _478  and  _481
REMARK  198  A    between atoms: _481  and  _482
REMARK  199  A    between atoms: _487  and  _489
REMARK  200  A    between atoms: _489  and  _490
REMARK  201  A    between atoms: _489  and  _492
REMARK  202  A    between atoms: _492  and  _493
REMARK  203  A    between atoms: _496  and  _498
REMARK  204  A    between atoms: _498  and  _499
REMARK  205  A    between atoms: _498  and  _501
REMARK  206  A    between atoms: _501  and  _502
REMARK  207  A    between atoms: _505  and  _507
REMARK  208  A    between atoms: _507  and  _508
REMARK  209  A    between atoms: _510  and  _512
REMARK  210  A    between atoms: _512  and  _513
REMARK  211  A    between atoms: _512  and  _515
REMARK  212  A    between atoms: _515  and  _516
REMARK  213  A    between atoms: _516  and  _517
REMARK  214  A    between atoms: _517  and  _518
REMARK                            x       y       z     vdW  Elec       q    Type
REMARK                         _______ _______ _______ _____ _____    ______ ____
ROOT
ATOM      1  O   HOH     1     -39.857  76.914  16.994  0.00  0.00    +0.000 OA
ENDROOT
TORSDOF 0
REMARK  Name = ../refined-set-2016/2aqu/2aqu_pocket.pdb
REMARK  214 active torsions:
REMARK  status: ('A' for Active; 'I' for Inactive)
REMARK    1  A    between atoms: _1  and  _3
REMARK    2  A    between atoms: _3  and  _4
REMARK    3  A    between atoms: _3  and  _6
REMARK    4  A    between atoms: _6  and  _7
REMARK    5  A    between atoms: _7  and  _8
REMARK    6  A    between atoms: _8  and  _9
REMARK    7  A    between atoms: _18  and  _20
REMARK    8  A    between atoms: _20  and  _21
REMARK    9  A    between atoms: _20  and  _23
REMARK   10  A    between atoms: _23  and  _24
REMARK   11  A    between atoms: _27  and  _29
REMARK   12  A    between atoms: _29  and  _30
REMARK   13  A    between atoms: _29  and  _32
REMARK   14  A    between atoms: _32  and  _33
REMARK   15  A    between atoms: _36  and  _38
REMARK   16  A    between atoms: _38  and  _39
REMARK   17  A    between atoms: _38  and  _41
REMARK   18  A    between atoms: _41  and  _42
REMARK   19  A    between atoms: _45  and  _47
REMARK   20  A    between atoms: _47  and  _48
REMARK   21  A    between atoms: _47  and  _50
REMARK   22  A    between atoms: _50  and  _51
REMARK   23  A    between atoms: _54  and  _56
REMARK   24  A    between atoms: _56  and  _57
REMARK   25  A    between atoms: _59  and  _61
REMARK   26  A    between atoms: _61  and  _62
REMARK   27  A    between atoms: _65  and  _67
REMARK   28  A    between atoms: _67  and  _68
REMARK   29  A    between atoms: _67  and  _70
REMARK   30  A    between atoms: _70  and  _71
REMARK   31  A    between atoms: _74  and  _76
REMARK   32  A    between atoms: _76  and  _77
REMARK   33  A    between atoms: _76  and  _79
REMARK   34  A    between atoms: _79  and  _80
REMARK   35  A    between atoms: _83  and  _85
REMARK   36  A    between atoms: _85  and  _86
REMARK   37  A    between atoms: _85  and  _88
REMARK   38  A    between atoms: _88  and  _89
REMARK   39  A    between atoms: _92  and  _94
REMARK   40  A    between atoms: _94  and  _95
REMARK   41  A    between atoms: _94  and  _97
REMARK   42  A    between atoms: _100  and  _102
REMARK   43  A    between atoms: _102  and  _103
REMARK   44  A    between atoms: _102  and  _105
REMARK   45  A    between atoms: _105  and  _106
REMARK   46  A    between atoms: _106  and  _107
REMARK   47  A    between atoms: _107  and  _108
REMARK   48  A    between atoms: _108  and  _109
REMARK   49  A    between atoms: _113  and  _115
REMARK   50  A    between atoms: _115  and  _116
REMARK   51  A    between atoms: _115  and  _118
REMARK   52  A    between atoms: _118  and  _119
REMARK   53  A    between atoms: _122  and  _124
REMARK   54  A    between atoms: _124  and  _125
REMARK   55  A    between atoms: _127  and  _129
REMARK   56  A    between atoms: _129  and  _130
REMARK   57  A    between atoms: _132  and  _134
REMARK   58  A    between atoms: _134  and  _135
REMARK   59  A    between atoms: _134  and  _137
REMARK   60  A    between atoms: _137  and  _138
REMARK   61  A    between atoms: _141  and  _143
REMARK   62  A    between atoms: _143  and  _144
REMARK   63  A    between atoms: _146  and  _148
REMARK   64  A    between atoms: _148  and  _149
REMARK   65  A    between atoms: _151  and  _153
REMARK   66  A    between atoms: _153  and  _154
REMARK   67  A    between atoms: _153  and  _156
REMARK   68  A    between atoms: _156  and  _157
REMARK   69  A    between atoms: _163  and  _165
REMARK   70  A    between atoms: _165  and  _166
REMARK   71  A    between atoms: _165  and  _168
REMARK   72  A    between atoms: _168  and  _169
REMARK   73  A    between atoms: _172  and  _174
REMARK   74  A    between atoms: _174  and  _175
REMARK   75  A    between atoms: _174  and  _177
REMARK   76  A    between atoms: _177  and  _178
REMARK   77  A    between atoms: _182  and  _183
REMARK   78  A    between atoms: _188  and  _190
REMARK   79  A    between atoms: _190  and  _191
REMARK   80  A    between atoms: _190  and  _193
REMARK   81  A    between atoms: _193  and  _194
REMARK   82  A    between atoms: _198  and  _199
REMARK   83  A    between atoms: _204  and  _206
REMARK   84  A    between atoms: _206  and  _207
REMARK   85  A    between atoms: _206  and  _209
REMARK   86  A    between atoms: _212  and  _214
REMARK   87  A    between atoms: _214  and  _215
REMARK   88  A    between atoms: _214  and  _217
REMARK   89  A    between atoms: _217  and  _218
REMARK   90  A    between atoms: _223  and  _225
REMARK   91  A    between atoms: _225  and  _226
REMARK   92  A    between atoms: _225  and  _228
REMARK   93  A    between atoms: _228  and  _229
REMARK   94  A    between atoms: _232  and  _234
REMARK   95  A    between atoms: _234  and  _235
REMARK   96  A    between atoms: _234  and  _237
REMARK   97  A    between atoms: _237  and  _238
REMARK   98  A    between atoms: _241  and  _243
REMARK   99  A    between atoms: _243  and  _244
REMARK  100  A    between atoms: _246  and  _248
REMARK  101  A    between atoms: _248  and  _249
REMARK  102  A    between atoms: _248  and  _251
REMARK  103  A    between atoms: _251  and  _252
REMARK  104  A    between atoms: _252  and  _253
REMARK  105  A    between atoms: _253  and  _254
REMARK  106  A    between atoms: _263  and  _265
REMARK  107  A    between atoms: _265  and  _266
REMARK  108  A    between atoms: _265  and  _268
REMARK  109  A    between atoms: _268  and  _269
REMARK  110  A    between atoms: _269  and  _270
REMARK  111  A    between atoms: _270  and  _271
REMARK  112  A    between atoms: _280  and  _282
REMARK  113  A    between atoms: _282  and  _283
REMARK  114  A    between atoms: _282  and  _285
REMARK  115  A    between atoms: _285  and  _286
REMARK  116  A    between atoms: _289  and  _291
REMARK  117  A    between atoms: _291  and  _292
REMARK  118  A    between atoms: _291  and  _294
REMARK  119  A    between atoms: _294  and  _295
REMARK  120  A    between atoms: _298  and  _300
REMARK  121  A    between atoms: _300  and  _301
REMARK  122  A    between atoms: _300  and  _303
REMARK  123  A    between atoms: _303  and  _304
REMARK  124  A    between atoms: _307  and  _309
REMARK  125  A    between atoms: _309  and  _310
REMARK  126  A    between atoms: _309  and  _312
REMARK  127  A    between atoms: _312  and  _313
REMARK  128  A    between atoms: _316  and  _318
REMARK  129  A    between atoms: _318  and  _319
REMARK  130  A    between atoms: _321  and  _323
REMARK  131  A    between atoms: _323  and  _324
REMARK  132  A    between atoms: _327  and  _329
REMARK  133  A    between atoms: _329  and  _330
REMARK  134  A    between atoms: _329  and  _332
REMARK  135  A    between atoms: _332  and  _333
REMARK  136  A    between atoms: _336  and  _338
REMARK  137  A    between atoms: _338  and  _339
REMARK  138  A    between atoms: _338  and  _341
REMARK  139  A    between atoms: _341  and  _342
REMARK  140  A    between atoms: _345  and  _347
REMARK  141  A    between atoms: _347  and  _348
REMARK  142  A    between atoms: _347  and  _350
REMARK  143  A    between atoms: _350  and  _351
REMARK  144  A    between atoms: _354  and  _356
REMARK  145  A    between atoms: _356  and  _357
REMARK  146  A    between atoms: _356  and  _359
REMARK  147  A    between atoms: _362  and  _364
REMARK  148  A    between atoms: _364  and  _365
REMARK  149  A    between atoms: _364  and  _367
REMARK  150  A    between atoms: _367  and  _368
REMARK  151  A    between atoms: _368  and  _369
REMARK  152  A    between atoms: _369  and  _370
REMARK  153  A    between atoms: _370  and  _371
REMARK  154  A    between atoms: _375  and  _377
REMARK  155  A    between atoms: _377  and  _378
REMARK  156  A    between atoms: _377  and  _380
REMARK  157  A    between atoms: _380  and  _381
REMARK  158  A    between atoms: _381  and  _382
REMARK  159  A    between atoms: _384  and  _386
REMARK  160  A    between atoms: _386  and  _387
REMARK  161  A    between atoms: _386  and  _389
REMARK  162  A    between atoms: _389  and  _390
REMARK  163  A    between atoms: _393  and  _395
REMARK  164  A    between atoms: _395  and  _396
REMARK  165  A    between atoms: _398  and  _400
REMARK  166  A    between atoms: _400  and  _401
REMARK  167  A    between atoms: _403  and  _405
REMARK  168  A    between atoms: _405  and  _406
REMARK  169  A    between atoms: _405  and  _408
REMARK  170  A    between atoms: _408  and  _409
REMARK  171  A    between atoms: _412  and  _414
REMARK  172  A    between atoms: _414  and  _415
REMARK  173  A    between atoms: _417  and  _419
REMARK  174  A    between atoms: _419  and  _420
REMARK  175  A    between atoms: _422  and  _424
REMARK  176  A    between atoms: _424  and  _425
REMARK  177  A    between atoms: _424  and  _427
REMARK  178  A    between atoms: _427  and  _428
REMARK  179  A    between atoms: _434  and  _436
REMARK  180  A    between atoms: _436  and  _437
REMARK  181  A    between atoms: _436  and  _439
REMARK  182  A    between atoms: _439  and  _440
REMARK  183  A    between atoms: _443  and  _445
REMARK  184  A    between atoms: _445  and  _446
REMARK  185  A    between atoms: _445  and  _448
REMARK  186  A    between atoms: _448  and  _449
REMARK  187  A    between atoms: _452  and  _454
REMARK  188  A    between atoms: _454  and  _455
REMARK  189  A    between atoms: _454  and  _457
REMARK  190  A    between atoms: _457  and  _458
REMARK  191  A    between atoms: _462  and  _463
REMARK  192  A    between atoms: _468  and  _470
REMARK  193  A    between atoms: _470  and  _471
REMARK  194  A    between atoms: _470  and  _473
REMARK  195  A    between atoms: _476  and  _478
REMARK  196  A    between atoms: _478  and  _479
REMARK  197  A    between atoms: _478  and  _481
REMARK  198  A    between atoms: _481  and  _482
REMARK  199  A    between atoms: _487  and  _489
REMARK  200  A    between atoms: _489  and  _490
REMARK  201  A    between atoms: _489  and  _492
REMARK  202  A    between atoms: _492  and  _493
REMARK  203  A    between atoms: _496  and  _498
REMARK  204  A    between atoms: _498  and  _499
REMARK  205  A    between atoms: _498  and  _501
REMARK  206  A    between atoms: _501  and  _502
REMARK  207  A    between atoms: _505  and  _507
REMARK  208  A    between atoms: _507  and  _508
REMARK  209  A    between atoms: _510  and  _512
REMARK  210  A    between atoms: _512  and  _513
REMARK  211  A    between atoms: _512  and  _515
REMARK  212  A    between atoms: _515  and  _516
REMARK  213  A    between atoms: _516  and  _517
REMARK  214  A    between atoms: _517  and  _518
REMARK                            x       y       z     vdW  Elec       q    Type
REMARK                         _______ _______ _______ _____ _____    ______ ____
ROOT
ATOM      1  O   HOH     1     -48.136  67.691  31.432  0.00  0.00    +0.000 OA
ENDROOT
TORSDOF 0
REMARK  Name = ../refined-set-2016/2aqu/2aqu_pocket.pdb
REMARK  214 active torsions:
REMARK  status: ('A' for Active; 'I' for Inactive)
REMARK    1  A    between atoms: _1  and  _3
REMARK    2  A    between atoms: _3  and  _4
REMARK    3  A    between atoms: _3  and  _6
REMARK    4  A    between atoms: _6  and  _7
REMARK    5  A    between atoms: _7  and  _8
REMARK    6  A    between atoms: _8  and  _9
REMARK    7  A    between atoms: _18  and  _20
REMARK    8  A    between atoms: _20  and  _21
REMARK    9  A    between atoms: _20  and  _23
REMARK   10  A    between atoms: _23  and  _24
REMARK   11  A    between atoms: _27  and  _29
REMARK   12  A    between atoms: _29  and  _30
REMARK   13  A    between atoms: _29  and  _32
REMARK   14  A    between atoms: _32  and  _33
REMARK   15  A    between atoms: _36  and  _38
REMARK   16  A    between atoms: _38  and  _39
REMARK   17  A    between atoms: _38  and  _41
REMARK   18  A    between atoms: _41  and  _42
REMARK   19  A    between atoms: _45  and  _47
REMARK   20  A    between atoms: _47  and  _48
REMARK   21  A    between atoms: _47  and  _50
REMARK   22  A    between atoms: _50  and  _51
REMARK   23  A    between atoms: _54  and  _56
REMARK   24  A    between atoms: _56  and  _57
REMARK   25  A    between atoms: _59  and  _61
REMARK   26  A    between atoms: _61  and  _62
REMARK   27  A    between atoms: _65  and  _67
REMARK   28  A    between atoms: _67  and  _68
REMARK   29  A    between atoms: _67  and  _70
REMARK   30  A    between atoms: _70  and  _71
REMARK   31  A    between atoms: _74  and  _76
REMARK   32  A    between atoms: _76  and  _77
REMARK   33  A    between atoms: _76  and  _79
REMARK   34  A    between atoms: _79  and  _80
REMARK   35  A    between atoms: _83  and  _85
REMARK   36  A    between atoms: _85  and  _86
REMARK   37  A    between atoms: _85  and  _88
REMARK   38  A    between atoms: _88  and  _89
REMARK   39  A    between atoms: _92  and  _94
REMARK   40  A    between atoms: _94  and  _95
REMARK   41  A    between atoms: _94  and  _97
REMARK   42  A    between atoms: _100  and  _102
REMARK   43  A    between atoms: _102  and  _103
REMARK   44  A    between atoms: _102  and  _105
REMARK   45  A    between atoms: _105  and  _106
REMARK   46  A    between atoms: _106  and  _107
REMARK   47  A    between atoms: _107  and  _108
REMARK   48  A    between atoms: _108  and  _109
REMARK   49  A    between atoms: _113  and  _115
REMARK   50  A    between atoms: _115  and  _116
REMARK   51  A    between atoms: _115  and  _118
REMARK   52  A    between atoms: _118  and  _119
REMARK   53  A    between atoms: _122  and  _124
REMARK   54  A    between atoms: _124  and  _125
REMARK   55  A    between atoms: _127  and  _129
REMARK   56  A    between atoms: _129  and  _130
REMARK   57  A    between atoms: _132  and  _134
REMARK   58  A    between atoms: _134  and  _135
REMARK   59  A    between atoms: _134  and  _137
REMARK   60  A    between atoms: _137  and  _138
REMARK   61  A    between atoms: _141  and  _143
REMARK   62  A    between atoms: _143  and  _144
REMARK   63  A    between atoms: _146  and  _148
REMARK   64  A    between atoms: _148  and  _149
REMARK   65  A    between atoms: _151  and  _153
REMARK   66  A    between atoms: _153  and  _154
REMARK   67  A    between atoms: _153  and  _156
REMARK   68  A    between atoms: _156  and  _157
REMARK   69  A    between atoms: _163  and  _165
REMARK   70  A    between atoms: _165  and  _166
REMARK   71  A    between atoms: _165  and  _168
REMARK   72  A    between atoms: _168  and  _169
REMARK   73  A    between atoms: _172  and  _174
REMARK   74  A    between atoms: _174  and  _175
REMARK   75  A    between atoms: _174  and  _177
REMARK   76  A    between atoms: _177  and  _178
REMARK   77  A    between atoms: _182  and  _183
REMARK   78  A    between atoms: _188  and  _190
REMARK   79  A    between atoms: _190  and  _191
REMARK   80  A    between atoms: _190  and  _193
REMARK   81  A    between atoms: _193  and  _194
REMARK   82  A    between atoms: _198  and  _199
REMARK   83  A    between atoms: _204  and  _206
REMARK   84  A    between atoms: _206  and  _207
REMARK   85  A    between atoms: _206  and  _209
REMARK   86  A    between atoms: _212  and  _214
REMARK   87  A    between atoms: _214  and  _215
REMARK   88  A    between atoms: _214  and  _217
REMARK   89  A    between atoms: _217  and  _218
REMARK   90  A    between atoms: _223  and  _225
REMARK   91  A    between atoms: _225  and  _226
REMARK   92  A    between atoms: _225  and  _228
REMARK   93  A    between atoms: _228  and  _229
REMARK   94  A    between atoms: _232  and  _234
REMARK   95  A    between atoms: _234  and  _235
REMARK   96  A    between atoms: _234  and  _237
REMARK   97  A    between atoms: _237  and  _238
REMARK   98  A    between atoms: _241  and  _243
REMARK   99  A    between atoms: _243  and  _244
REMARK  100  A    between atoms: _246  and  _248
REMARK  101  A    between atoms: _248  and  _249
REMARK  102  A    between atoms: _248  and  _251
REMARK  103  A    between atoms: _251  and  _252
REMARK  104  A    between atoms: _252  and  _253
REMARK  105  A    between atoms: _253  and  _254
REMARK  106  A    between atoms: _263  and  _265
REMARK  107  A    between atoms: _265  and  _266
REMARK  108  A    between atoms: _265  and  _268
REMARK  109  A    between atoms: _268  and  _269
REMARK  110  A    between atoms: _269  and  _270
REMARK  111  A    between atoms: _270  and  _271
REMARK  112  A    between atoms: _280  and  _282
REMARK  113  A    between atoms: _282  and  _283
REMARK  114  A    between atoms: _282  and  _285
REMARK  115  A    between atoms: _285  and  _286
REMARK  116  A    between atoms: _289  and  _291
REMARK  117  A    between atoms: _291  and  _292
REMARK  118  A    between atoms: _291  and  _294
REMARK  119  A    between atoms: _294  and  _295
REMARK  120  A    between atoms: _298  and  _300
REMARK  121  A    between atoms: _300  and  _301
REMARK  122  A    between atoms: _300  and  _303
REMARK  123  A    between atoms: _303  and  _304
REMARK  124  A    between atoms: _307  and  _309
REMARK  125  A    between atoms: _309  and  _310
REMARK  126  A    between atoms: _309  and  _312
REMARK  127  A    between atoms: _312  and  _313
REMARK  128  A    between atoms: _316  and  _318
REMARK  129  A    between atoms: _318  and  _319
REMARK  130  A    between atoms: _321  and  _323
REMARK  131  A    between atoms: _323  and  _324
REMARK  132  A    between atoms: _327  and  _329
REMARK  133  A    between atoms: _329  and  _330
REMARK  134  A    between atoms: _329  and  _332
REMARK  135  A    between atoms: _332  and  _333
REMARK  136  A    between atoms: _336  and  _338
REMARK  137  A    between atoms: _338  and  _339
REMARK  138  A    between atoms: _338  and  _341
REMARK  139  A    between atoms: _341  and  _342
REMARK  140  A    between atoms: _345  and  _347
REMARK  141  A    between atoms: _347  and  _348
REMARK  142  A    between atoms: _347  and  _350
REMARK  143  A    between atoms: _350  and  _351
REMARK  144  A    between atoms: _354  and  _356
REMARK  145  A    between atoms: _356  and  _357
REMARK  146  A    between atoms: _356  and  _359
REMARK  147  A    between atoms: _362  and  _364
REMARK  148  A    between atoms: _364  and  _365
REMARK  149  A    between atoms: _364  and  _367
REMARK  150  A    between atoms: _367  and  _368
REMARK  151  A    between atoms: _368  and  _369
REMARK  152  A    between atoms: _369  and  _370
REMARK  153  A    between atoms: _370  and  _371
REMARK  154  A    between atoms: _375  and  _377
REMARK  155  A    between atoms: _377  and  _378
REMARK  156  A    between atoms: _377  and  _380
REMARK  157  A    between atoms: _380  and  _381
REMARK  158  A    between atoms: _381  and  _382
REMARK  159  A    between atoms: _384  and  _386
REMARK  160  A    between atoms: _386  and  _387
REMARK  161  A    between atoms: _386  and  _389
REMARK  162  A    between atoms: _389  and  _390
REMARK  163  A    between atoms: _393  and  _395
REMARK  164  A    between atoms: _395  and  _396
REMARK  165  A    between atoms: _398  and  _400
REMARK  166  A    between atoms: _400  and  _401
REMARK  167  A    between atoms: _403  and  _405
REMARK  168  A    between atoms: _405  and  _406
REMARK  169  A    between atoms: _405  and  _408
REMARK  170  A    between atoms: _408  and  _409
REMARK  171  A    between atoms: _412  and  _414
REMARK  172  A    between atoms: _414  and  _415
REMARK  173  A    between atoms: _417  and  _419
REMARK  174  A    between atoms: _419  and  _420
REMARK  175  A    between atoms: _422  and  _424
REMARK  176  A    between atoms: _424  and  _425
REMARK  177  A    between atoms: _424  and  _427
REMARK  178  A    between atoms: _427  and  _428
REMARK  179  A    between atoms: _434  and  _436
REMARK  180  A    between atoms: _436  and  _437
REMARK  181  A    between atoms: _436  and  _439
REMARK  182  A    between atoms: _439  and  _440
REMARK  183  A    between atoms: _443  and  _445
REMARK  184  A    between atoms: _445  and  _446
REMARK  185  A    between atoms: _445  and  _448
REMARK  186  A    between atoms: _448  and  _449
REMARK  187  A    between atoms: _452  and  _454
REMARK  188  A    between atoms: _454  and  _455
REMARK  189  A    between atoms: _454  and  _457
REMARK  190  A    between atoms: _457  and  _458
REMARK  191  A    between atoms: _462  and  _463
REMARK  192  A    between atoms: _468  and  _470
REMARK  193  A    between atoms: _470  and  _471
REMARK  194  A    between atoms: _470  and  _473
REMARK  195  A    between atoms: _476  and  _478
REMARK  196  A    between atoms: _478  and  _479
REMARK  197  A    between atoms: _478  and  _481
REMARK  198  A    between atoms: _481  and  _482
REMARK  199  A    between atoms: _487  and  _489
REMARK  200  A    between atoms: _489  and  _490
REMARK  201  A    between atoms: _489  and  _492
REMARK  202  A    between atoms: _492  and  _493
REMARK  203  A    between atoms: _496  and  _498
REMARK  204  A    between atoms: _498  and  _499
REMARK  205  A    between atoms: _498  and  _501
REMARK  206  A    between atoms: _501  and  _502
REMARK  207  A    between atoms: _505  and  _507
REMARK  208  A    between atoms: _507  and  _508
REMARK  209  A    between atoms: _510  and  _512
REMARK  210  A    between atoms: _512  and  _513
REMARK  211  A    between atoms: _512  and  _515
REMARK  212  A    between atoms: _515  and  _516
REMARK  213  A    between atoms: _516  and  _517
REMARK  214  A    between atoms: _517  and  _518
REMARK                            x       y       z     vdW  Elec       q    Type
REMARK                         _______ _______ _______ _____ _____    ______ ____
ROOT
ATOM      1  O   HOH     1     -35.507  69.242  20.425  0.00  0.00    +0.000 OA
ENDROOT
TORSDOF 0
REMARK  Name = ../refined-set-2016/2aqu/2aqu_pocket.pdb
REMARK  214 active torsions:
REMARK  status: ('A' for Active; 'I' for Inactive)
REMARK    1  A    between atoms: _1  and  _3
REMARK    2  A    between atoms: _3  and  _4
REMARK    3  A    between atoms: _3  and  _6
REMARK    4  A    between atoms: _6  and  _7
REMARK    5  A    between atoms: _7  and  _8
REMARK    6  A    between atoms: _8  and  _9
REMARK    7  A    between atoms: _18  and  _20
REMARK    8  A    between atoms: _20  and  _21
REMARK    9  A    between atoms: _20  and  _23
REMARK   10  A    between atoms: _23  and  _24
REMARK   11  A    between atoms: _27  and  _29
REMARK   12  A    between atoms: _29  and  _30
REMARK   13  A    between atoms: _29  and  _32
REMARK   14  A    between atoms: _32  and  _33
REMARK   15  A    between atoms: _36  and  _38
REMARK   16  A    between atoms: _38  and  _39
REMARK   17  A    between atoms: _38  and  _41
REMARK   18  A    between atoms: _41  and  _42
REMARK   19  A    between atoms: _45  and  _47
REMARK   20  A    between atoms: _47  and  _48
REMARK   21  A    between atoms: _47  and  _50
REMARK   22  A    between atoms: _50  and  _51
REMARK   23  A    between atoms: _54  and  _56
REMARK   24  A    between atoms: _56  and  _57
REMARK   25  A    between atoms: _59  and  _61
REMARK   26  A    between atoms: _61  and  _62
REMARK   27  A    between atoms: _65  and  _67
REMARK   28  A    between atoms: _67  and  _68
REMARK   29  A    between atoms: _67  and  _70
REMARK   30  A    between atoms: _70  and  _71
REMARK   31  A    between atoms: _74  and  _76
REMARK   32  A    between atoms: _76  and  _77
REMARK   33  A    between atoms: _76  and  _79
REMARK   34  A    between atoms: _79  and  _80
REMARK   35  A    between atoms: _83  and  _85
REMARK   36  A    between atoms: _85  and  _86
REMARK   37  A    between atoms: _85  and  _88
REMARK   38  A    between atoms: _88  and  _89
REMARK   39  A    between atoms: _92  and  _94
REMARK   40  A    between atoms: _94  and  _95
REMARK   41  A    between atoms: _94  and  _97
REMARK   42  A    between atoms: _100  and  _102
REMARK   43  A    between atoms: _102  and  _103
REMARK   44  A    between atoms: _102  and  _105
REMARK   45  A    between atoms: _105  and  _106
REMARK   46  A    between atoms: _106  and  _107
REMARK   47  A    between atoms: _107  and  _108
REMARK   48  A    between atoms: _108  and  _109
REMARK   49  A    between atoms: _113  and  _115
REMARK   50  A    between atoms: _115  and  _116
REMARK   51  A    between atoms: _115  and  _118
REMARK   52  A    between atoms: _118  and  _119
REMARK   53  A    between atoms: _122  and  _124
REMARK   54  A    between atoms: _124  and  _125
REMARK   55  A    between atoms: _127  and  _129
REMARK   56  A    between atoms: _129  and  _130
REMARK   57  A    between atoms: _132  and  _134
REMARK   58  A    between atoms: _134  and  _135
REMARK   59  A    between atoms: _134  and  _137
REMARK   60  A    between atoms: _137  and  _138
REMARK   61  A    between atoms: _141  and  _143
REMARK   62  A    between atoms: _143  and  _144
REMARK   63  A    between atoms: _146  and  _148
REMARK   64  A    between atoms: _148  and  _149
REMARK   65  A    between atoms: _151  and  _153
REMARK   66  A    between atoms: _153  and  _154
REMARK   67  A    between atoms: _153  and  _156
REMARK   68  A    between atoms: _156  and  _157
REMARK   69  A    between atoms: _163  and  _165
REMARK   70  A    between atoms: _165  and  _166
REMARK   71  A    between atoms: _165  and  _168
REMARK   72  A    between atoms: _168  and  _169
REMARK   73  A    between atoms: _172  and  _174
REMARK   74  A    between atoms: _174  and  _175
REMARK   75  A    between atoms: _174  and  _177
REMARK   76  A    between atoms: _177  and  _178
REMARK   77  A    between atoms: _182  and  _183
REMARK   78  A    between atoms: _188  and  _190
REMARK   79  A    between atoms: _190  and  _191
REMARK   80  A    between atoms: _190  and  _193
REMARK   81  A    between atoms: _193  and  _194
REMARK   82  A    between atoms: _198  and  _199
REMARK   83  A    between atoms: _204  and  _206
REMARK   84  A    between atoms: _206  and  _207
REMARK   85  A    between atoms: _206  and  _209
REMARK   86  A    between atoms: _212  and  _214
REMARK   87  A    between atoms: _214  and  _215
REMARK   88  A    between atoms: _214  and  _217
REMARK   89  A    between atoms: _217  and  _218
REMARK   90  A    between atoms: _223  and  _225
REMARK   91  A    between atoms: _225  and  _226
REMARK   92  A    between atoms: _225  and  _228
REMARK   93  A    between atoms: _228  and  _229
REMARK   94  A    between atoms: _232  and  _234
REMARK   95  A    between atoms: _234  and  _235
REMARK   96  A    between atoms: _234  and  _237
REMARK   97  A    between atoms: _237  and  _238
REMARK   98  A    between atoms: _241  and  _243
REMARK   99  A    between atoms: _243  and  _244
REMARK  100  A    between atoms: _246  and  _248
REMARK  101  A    between atoms: _248  and  _249
REMARK  102  A    between atoms: _248  and  _251
REMARK  103  A    between atoms: _251  and  _252
REMARK  104  A    between atoms: _252  and  _253
REMARK  105  A    between atoms: _253  and  _254
REMARK  106  A    between atoms: _263  and  _265
REMARK  107  A    between atoms: _265  and  _266
REMARK  108  A    between atoms: _265  and  _268
REMARK  109  A    between atoms: _268  and  _269
REMARK  110  A    between atoms: _269  and  _270
REMARK  111  A    between atoms: _270  and  _271
REMARK  112  A    between atoms: _280  and  _282
REMARK  113  A    between atoms: _282  and  _283
REMARK  114  A    between atoms: _282  and  _285
REMARK  115  A    between atoms: _285  and  _286
REMARK  116  A    between atoms: _289  and  _291
REMARK  117  A    between atoms: _291  and  _292
REMARK  118  A    between atoms: _291  and  _294
REMARK  119  A    between atoms: _294  and  _295
REMARK  120  A    between atoms: _298  and  _300
REMARK  121  A    between atoms: _300  and  _301
REMARK  122  A    between atoms: _300  and  _303
REMARK  123  A    between atoms: _303  and  _304
REMARK  124  A    between atoms: _307  and  _309
REMARK  125  A    between atoms: _309  and  _310
REMARK  126  A    between atoms: _309  and  _312
REMARK  127  A    between atoms: _312  and  _313
REMARK  128  A    between atoms: _316  and  _318
REMARK  129  A    between atoms: _318  and  _319
REMARK  130  A    between atoms: _321  and  _323
REMARK  131  A    between atoms: _323  and  _324
REMARK  132  A    between atoms: _327  and  _329
REMARK  133  A    between atoms: _329  and  _330
REMARK  134  A    between atoms: _329  and  _332
REMARK  135  A    between atoms: _332  and  _333
REMARK  136  A    between atoms: _336  and  _338
REMARK  137  A    between atoms: _338  and  _339
REMARK  138  A    between atoms: _338  and  _341
REMARK  139  A    between atoms: _341  and  _342
REMARK  140  A    between atoms: _345  and  _347
REMARK  141  A    between atoms: _347  and  _348
REMARK  142  A    between atoms: _347  and  _350
REMARK  143  A    between atoms: _350  and  _351
REMARK  144  A    between atoms: _354  and  _356
REMARK  145  A    between atoms: _356  and  _357
REMARK  146  A    between atoms: _356  and  _359
REMARK  147  A    between atoms: _362  and  _364
REMARK  148  A    between atoms: _364  and  _365
REMARK  149  A    between atoms: _364  and  _367
REMARK  150  A    between atoms: _367  and  _368
REMARK  151  A    between atoms: _368  and  _369
REMARK  152  A    between atoms: _369  and  _370
REMARK  153  A    between atoms: _370  and  _371
REMARK  154  A    between atoms: _375  and  _377
REMARK  155  A    between atoms: _377  and  _378
REMARK  156  A    between atoms: _377  and  _380
REMARK  157  A    between atoms: _380  and  _381
REMARK  158  A    between atoms: _381  and  _382
REMARK  159  A    between atoms: _384  and  _386
REMARK  160  A    between atoms: _386  and  _387
REMARK  161  A    between atoms: _386  and  _389
REMARK  162  A    between atoms: _389  and  _390
REMARK  163  A    between atoms: _393  and  _395
REMARK  164  A    between atoms: _395  and  _396
REMARK  165  A    between atoms: _398  and  _400
REMARK  166  A    between atoms: _400  and  _401
REMARK  167  A    between atoms: _403  and  _405
REMARK  168  A    between atoms: _405  and  _406
REMARK  169  A    between atoms: _405  and  _408
REMARK  170  A    between atoms: _408  and  _409
REMARK  171  A    between atoms: _412  and  _414
REMARK  172  A    between atoms: _414  and  _415
REMARK  173  A    between atoms: _417  and  _419
REMARK  174  A    between atoms: _419  and  _420
REMARK  175  A    between atoms: _422  and  _424
REMARK  176  A    between atoms: _424  and  _425
REMARK  177  A    between atoms: _424  and  _427
REMARK  178  A    between atoms: _427  and  _428
REMARK  179  A    between atoms: _434  and  _436
REMARK  180  A    between atoms: _436  and  _437
REMARK  181  A    between atoms: _436  and  _439
REMARK  182  A    between atoms: _439  and  _440
REMARK  183  A    between atoms: _443  and  _445
REMARK  184  A    between atoms: _445  and  _446
REMARK  185  A    between atoms: _445  and  _448
REMARK  186  A    between atoms: _448  and  _449
REMARK  187  A    between atoms: _452  and  _454
REMARK  188  A    between atoms: _454  and  _455
REMARK  189  A    between atoms: _454  and  _457
REMARK  190  A    between atoms: _457  and  _458
REMARK  191  A    between atoms: _462  and  _463
REMARK  192  A    between atoms: _468  and  _470
REMARK  193  A    between atoms: _470  and  _471
REMARK  194  A    between atoms: _470  and  _473
REMARK  195  A    between atoms: _476  and  _478
REMARK  196  A    between atoms: _478  and  _479
REMARK  197  A    between atoms: _478  and  _481
REMARK  198  A    between atoms: _481  and  _482
REMARK  199  A    between atoms: _487  and  _489
REMARK  200  A    between atoms: _489  and  _490
REMARK  201  A    between atoms: _489  and  _492
REMARK  202  A    between atoms: _492  and  _493
REMARK  203  A    between atoms: _496  and  _498
REMARK  204  A    between atoms: _498  and  _499
REMARK  205  A    between atoms: _498  and  _501
REMARK  206  A    between atoms: _501  and  _502
REMARK  207  A    between atoms: _505  and  _507
REMARK  208  A    between atoms: _507  and  _508
REMARK  209  A    between atoms: _510  and  _512
REMARK  210  A    between atoms: _512  and  _513
REMARK  211  A    between atoms: _512  and  _515
REMARK  212  A    between atoms: _515  and  _516
REMARK  213  A    between atoms: _516  and  _517
REMARK  214  A    between atoms: _517  and  _518
REMARK                            x       y       z     vdW  Elec       q    Type
REMARK                         _______ _______ _______ _____ _____    ______ ____
ROOT
ATOM      1  O   HOH     1     -31.978  73.722  24.263  0.00  0.00    +0.000 OA
ENDROOT
TORSDOF 0
REMARK  Name = ../refined-set-2016/2aqu/2aqu_pocket.pdb
REMARK  214 active torsions:
REMARK  status: ('A' for Active; 'I' for Inactive)
REMARK    1  A    between atoms: _1  and  _3
REMARK    2  A    between atoms: _3  and  _4
REMARK    3  A    between atoms: _3  and  _6
REMARK    4  A    between atoms: _6  and  _7
REMARK    5  A    between atoms: _7  and  _8
REMARK    6  A    between atoms: _8  and  _9
REMARK    7  A    between atoms: _18  and  _20
REMARK    8  A    between atoms: _20  and  _21
REMARK    9  A    between atoms: _20  and  _23
REMARK   10  A    between atoms: _23  and  _24
REMARK   11  A    between atoms: _27  and  _29
REMARK   12  A    between atoms: _29  and  _30
REMARK   13  A    between atoms: _29  and  _32
REMARK   14  A    between atoms: _32  and  _33
REMARK   15  A    between atoms: _36  and  _38
REMARK   16  A    between atoms: _38  and  _39
REMARK   17  A    between atoms: _38  and  _41
REMARK   18  A    between atoms: _41  and  _42
REMARK   19  A    between atoms: _45  and  _47
REMARK   20  A    between atoms: _47  and  _48
REMARK   21  A    between atoms: _47  and  _50
REMARK   22  A    between atoms: _50  and  _51
REMARK   23  A    between atoms: _54  and  _56
REMARK   24  A    between atoms: _56  and  _57
REMARK   25  A    between atoms: _59  and  _61
REMARK   26  A    between atoms: _61  and  _62
REMARK   27  A    between atoms: _65  and  _67
REMARK   28  A    between atoms: _67  and  _68
REMARK   29  A    between atoms: _67  and  _70
REMARK   30  A    between atoms: _70  and  _71
REMARK   31  A    between atoms: _74  and  _76
REMARK   32  A    between atoms: _76  and  _77
REMARK   33  A    between atoms: _76  and  _79
REMARK   34  A    between atoms: _79  and  _80
REMARK   35  A    between atoms: _83  and  _85
REMARK   36  A    between atoms: _85  and  _86
REMARK   37  A    between atoms: _85  and  _88
REMARK   38  A    between atoms: _88  and  _89
REMARK   39  A    between atoms: _92  and  _94
REMARK   40  A    between atoms: _94  and  _95
REMARK   41  A    between atoms: _94  and  _97
REMARK   42  A    between atoms: _100  and  _102
REMARK   43  A    between atoms: _102  and  _103
REMARK   44  A    between atoms: _102  and  _105
REMARK   45  A    between atoms: _105  and  _106
REMARK   46  A    between atoms: _106  and  _107
REMARK   47  A    between atoms: _107  and  _108
REMARK   48  A    between atoms: _108  and  _109
REMARK   49  A    between atoms: _113  and  _115
REMARK   50  A    between atoms: _115  and  _116
REMARK   51  A    between atoms: _115  and  _118
REMARK   52  A    between atoms: _118  and  _119
REMARK   53  A    between atoms: _122  and  _124
REMARK   54  A    between atoms: _124  and  _125
REMARK   55  A    between atoms: _127  and  _129
REMARK   56  A    between atoms: _129  and  _130
REMARK   57  A    between atoms: _132  and  _134
REMARK   58  A    between atoms: _134  and  _135
REMARK   59  A    between atoms: _134  and  _137
REMARK   60  A    between atoms: _137  and  _138
REMARK   61  A    between atoms: _141  and  _143
REMARK   62  A    between atoms: _143  and  _144
REMARK   63  A    between atoms: _146  and  _148
REMARK   64  A    between atoms: _148  and  _149
REMARK   65  A    between atoms: _151  and  _153
REMARK   66  A    between atoms: _153  and  _154
REMARK   67  A    between atoms: _153  and  _156
REMARK   68  A    between atoms: _156  and  _157
REMARK   69  A    between atoms: _163  and  _165
REMARK   70  A    between atoms: _165  and  _166
REMARK   71  A    between atoms: _165  and  _168
REMARK   72  A    between atoms: _168  and  _169
REMARK   73  A    between atoms: _172  and  _174
REMARK   74  A    between atoms: _174  and  _175
REMARK   75  A    between atoms: _174  and  _177
REMARK   76  A    between atoms: _177  and  _178
REMARK   77  A    between atoms: _182  and  _183
REMARK   78  A    between atoms: _188  and  _190
REMARK   79  A    between atoms: _190  and  _191
REMARK   80  A    between atoms: _190  and  _193
REMARK   81  A    between atoms: _193  and  _194
REMARK   82  A    between atoms: _198  and  _199
REMARK   83  A    between atoms: _204  and  _206
REMARK   84  A    between atoms: _206  and  _207
REMARK   85  A    between atoms: _206  and  _209
REMARK   86  A    between atoms: _212  and  _214
REMARK   87  A    between atoms: _214  and  _215
REMARK   88  A    between atoms: _214  and  _217
REMARK   89  A    between atoms: _217  and  _218
REMARK   90  A    between atoms: _223  and  _225
REMARK   91  A    between atoms: _225  and  _226
REMARK   92  A    between atoms: _225  and  _228
REMARK   93  A    between atoms: _228  and  _229
REMARK   94  A    between atoms: _232  and  _234
REMARK   95  A    between atoms: _234  and  _235
REMARK   96  A    between atoms: _234  and  _237
REMARK   97  A    between atoms: _237  and  _238
REMARK   98  A    between atoms: _241  and  _243
REMARK   99  A    between atoms: _243  and  _244
REMARK  100  A    between atoms: _246  and  _248
REMARK  101  A    between atoms: _248  and  _249
REMARK  102  A    between atoms: _248  and  _251
REMARK  103  A    between atoms: _251  and  _252
REMARK  104  A    between atoms: _252  and  _253
REMARK  105  A    between atoms: _253  and  _254
REMARK  106  A    between atoms: _263  and  _265
REMARK  107  A    between atoms: _265  and  _266
REMARK  108  A    between atoms: _265  and  _268
REMARK  109  A    between atoms: _268  and  _269
REMARK  110  A    between atoms: _269  and  _270
REMARK  111  A    between atoms: _270  and  _271
REMARK  112  A    between atoms: _280  and  _282
REMARK  113  A    between atoms: _282  and  _283
REMARK  114  A    between atoms: _282  and  _285
REMARK  115  A    between atoms: _285  and  _286
REMARK  116  A    between atoms: _289  and  _291
REMARK  117  A    between atoms: _291  and  _292
REMARK  118  A    between atoms: _291  and  _294
REMARK  119  A    between atoms: _294  and  _295
REMARK  120  A    between atoms: _298  and  _300
REMARK  121  A    between atoms: _300  and  _301
REMARK  122  A    between atoms: _300  and  _303
REMARK  123  A    between atoms: _303  and  _304
REMARK  124  A    between atoms: _307  and  _309
REMARK  125  A    between atoms: _309  and  _310
REMARK  126  A    between atoms: _309  and  _312
REMARK  127  A    between atoms: _312  and  _313
REMARK  128  A    between atoms: _316  and  _318
REMARK  129  A    between atoms: _318  and  _319
REMARK  130  A    between atoms: _321  and  _323
REMARK  131  A    between atoms: _323  and  _324
REMARK  132  A    between atoms: _327  and  _329
REMARK  133  A    between atoms: _329  and  _330
REMARK  134  A    between atoms: _329  and  _332
REMARK  135  A    between atoms: _332  and  _333
REMARK  136  A    between atoms: _336  and  _338
REMARK  137  A    between atoms: _338  and  _339
REMARK  138  A    between atoms: _338  and  _341
REMARK  139  A    between atoms: _341  and  _342
REMARK  140  A    between atoms: _345  and  _347
REMARK  141  A    between atoms: _347  and  _348
REMARK  142  A    between atoms: _347  and  _350
REMARK  143  A    between atoms: _350  and  _351
REMARK  144  A    between atoms: _354  and  _356
REMARK  145  A    between atoms: _356  and  _357
REMARK  146  A    between atoms: _356  and  _359
REMARK  147  A    between atoms: _362  and  _364
REMARK  148  A    between atoms: _364  and  _365
REMARK  149  A    between atoms: _364  and  _367
REMARK  150  A    between atoms: _367  and  _368
REMARK  151  A    between atoms: _368  and  _369
REMARK  152  A    between atoms: _369  and  _370
REMARK  153  A    between atoms: _370  and  _371
REMARK  154  A    between atoms: _375  and  _377
REMARK  155  A    between atoms: _377  and  _378
REMARK  156  A    between atoms: _377  and  _380
REMARK  157  A    between atoms: _380  and  _381
REMARK  158  A    between atoms: _381  and  _382
REMARK  159  A    between atoms: _384  and  _386
REMARK  160  A    between atoms: _386  and  _387
REMARK  161  A    between atoms: _386  and  _389
REMARK  162  A    between atoms: _389  and  _390
REMARK  163  A    between atoms: _393  and  _395
REMARK  164  A    between atoms: _395  and  _396
REMARK  165  A    between atoms: _398  and  _400
REMARK  166  A    between atoms: _400  and  _401
REMARK  167  A    between atoms: _403  and  _405
REMARK  168  A    between atoms: _405  and  _406
REMARK  169  A    between atoms: _405  and  _408
REMARK  170  A    between atoms: _408  and  _409
REMARK  171  A    between atoms: _412  and  _414
REMARK  172  A    between atoms: _414  and  _415
REMARK  173  A    between atoms: _417  and  _419
REMARK  174  A    between atoms: _419  and  _420
REMARK  175  A    between atoms: _422  and  _424
REMARK  176  A    between atoms: _424  and  _425
REMARK  177  A    between atoms: _424  and  _427
REMARK  178  A    between atoms: _427  and  _428
REMARK  179  A    between atoms: _434  and  _436
REMARK  180  A    between atoms: _436  and  _437
REMARK  181  A    between atoms: _436  and  _439
REMARK  182  A    between atoms: _439  and  _440
REMARK  183  A    between atoms: _443  and  _445
REMARK  184  A    between atoms: _445  and  _446
REMARK  185  A    between atoms: _445  and  _448
REMARK  186  A    between atoms: _448  and  _449
REMARK  187  A    between atoms: _452  and  _454
REMARK  188  A    between atoms: _454  and  _455
REMARK  189  A    between atoms: _454  and  _457
REMARK  190  A    between atoms: _457  and  _458
REMARK  191  A    between atoms: _462  and  _463
REMARK  192  A    between atoms: _468  and  _470
REMARK  193  A    between atoms: _470  and  _471
REMARK  194  A    between atoms: _470  and  _473
REMARK  195  A    between atoms: _476  and  _478
REMARK  196  A    between atoms: _478  and  _479
REMARK  197  A    between atoms: _478  and  _481
REMARK  198  A    between atoms: _481  and  _482
REMARK  199  A    between atoms: _487  and  _489
REMARK  200  A    between atoms: _489  and  _490
REMARK  201  A    between atoms: _489  and  _492
REMARK  202  A    between atoms: _492  and  _493
REMARK  203  A    between atoms: _496  and  _498
REMARK  204  A    between atoms: _498  and  _499
REMARK  205  A    between atoms: _498  and  _501
REMARK  206  A    between atoms: _501  and  _502
REMARK  207  A    between atoms: _505  and  _507
REMARK  208  A    between atoms: _507  and  _508
REMARK  209  A    between atoms: _510  and  _512
REMARK  210  A    between atoms: _512  and  _513
REMARK  211  A    between atoms: _512  and  _515
REMARK  212  A    between atoms: _515  and  _516
REMARK  213  A    between atoms: _516  and  _517
REMARK  214  A    between atoms: _517  and  _518
REMARK                            x       y       z     vdW  Elec       q    Type
REMARK                         _______ _______ _______ _____ _____    ______ ____
ROOT
ATOM      1  O   HOH     1     -34.921  77.269  18.822  0.00  0.00    +0.000 OA
ENDROOT
TORSDOF 0
