REMARK  Name = ../refined-set-2016/4r73/4r73_pocket.pdb
REMARK  225 active torsions:
REMARK  status: ('A' for Active; 'I' for Inactive)
REMARK    1  A    between atoms: _1  and  _3
REMARK    2  A    between atoms: _3  and  _4
REMARK    3  A    between atoms: _3  and  _6
REMARK    4  A    between atoms: _8  and  _10
REMARK    5  A    between atoms: _10  and  _11
REMARK    6  A    between atoms: _10  and  _13
REMARK    7  A    between atoms: _13  and  _14
REMARK    8  A    between atoms: _16  and  _18
REMARK    9  A    between atoms: _18  and  _19
REMARK   10  A    between atoms: _22  and  _24
REMARK   11  A    between atoms: _24  and  _25
REMARK   12  A    between atoms: _24  and  _27
REMARK   13  A    between atoms: _27  and  _28
REMARK   14  A    between atoms: _31  and  _33
REMARK   15  A    between atoms: _33  and  _34
REMARK   16  A    between atoms: _33  and  _36
REMARK   17  A    between atoms: _36  and  _37
REMARK   18  A    between atoms: _42  and  _44
REMARK   19  A    between atoms: _44  and  _45
REMARK   20  A    between atoms: _44  and  _47
REMARK   21  A    between atoms: _47  and  _48
REMARK   22  A    between atoms: _48  and  _49
REMARK   23  A    between atoms: _51  and  _53
REMARK   24  A    between atoms: _53  and  _54
REMARK   25  A    between atoms: _53  and  _56
REMARK   26  A    between atoms: _56  and  _57
REMARK   27  A    between atoms: _57  and  _58
REMARK   28  A    between atoms: _58  and  _59
REMARK   29  A    between atoms: _68  and  _70
REMARK   30  A    between atoms: _70  and  _71
REMARK   31  A    between atoms: _70  and  _73
REMARK   32  A    between atoms: _73  and  _74
REMARK   33  A    between atoms: _79  and  _81
REMARK   34  A    between atoms: _81  and  _82
REMARK   35  A    between atoms: _84  and  _86
REMARK   36  A    between atoms: _86  and  _87
REMARK   37  A    between atoms: _86  and  _89
REMARK   38  A    between atoms: _89  and  _90
REMARK   39  A    between atoms: _92  and  _94
REMARK   40  A    between atoms: _94  and  _95
REMARK   41  A    between atoms: _97  and  _99
REMARK   42  A    between atoms: _99  and  _100
REMARK   43  A    between atoms: _99  and  _102
REMARK   44  A    between atoms: _102  and  _103
REMARK   45  A    between atoms: _105  and  _107
REMARK   46  A    between atoms: _107  and  _108
REMARK   47  A    between atoms: _107  and  _110
REMARK   48  A    between atoms: _110  and  _111
REMARK   49  A    between atoms: _114  and  _116
REMARK   50  A    between atoms: _116  and  _117
REMARK   51  A    between atoms: _116  and  _119
REMARK   52  A    between atoms: _119  and  _120
REMARK   53  A    between atoms: _126  and  _128
REMARK   54  A    between atoms: _128  and  _129
REMARK   55  A    between atoms: _128  and  _131
REMARK   56  A    between atoms: _131  and  _132
REMARK   57  A    between atoms: _142  and  _144
REMARK   58  A    between atoms: _144  and  _145
REMARK   59  A    between atoms: _144  and  _147
REMARK   60  A    between atoms: _147  and  _148
REMARK   61  A    between atoms: _153  and  _154
REMARK   62  A    between atoms: _156  and  _158
REMARK   63  A    between atoms: _158  and  _159
REMARK   64  A    between atoms: _161  and  _163
REMARK   65  A    between atoms: _163  and  _164
REMARK   66  A    between atoms: _166  and  _168
REMARK   67  A    between atoms: _168  and  _169
REMARK   68  A    between atoms: _168  and  _171
REMARK   69  A    between atoms: _171  and  _172
REMARK   70  A    between atoms: _175  and  _177
REMARK   71  A    between atoms: _177  and  _178
REMARK   72  A    between atoms: _177  and  _180
REMARK   73  A    between atoms: _180  and  _181
REMARK   74  A    between atoms: _185  and  _186
REMARK   75  A    between atoms: _191  and  _193
REMARK   76  A    between atoms: _193  and  _194
REMARK   77  A    between atoms: _193  and  _196
REMARK   78  A    between atoms: _196  and  _197
REMARK   79  A    between atoms: _197  and  _198
REMARK   80  A    between atoms: _203  and  _205
REMARK   81  A    between atoms: _205  and  _206
REMARK   82  A    between atoms: _205  and  _208
REMARK   83  A    between atoms: _208  and  _209
REMARK   84  A    between atoms: _214  and  _215
REMARK   85  A    between atoms: _217  and  _219
REMARK   86  A    between atoms: _219  and  _220
REMARK   87  A    between atoms: _219  and  _222
REMARK   88  A    between atoms: _222  and  _223
REMARK   89  A    between atoms: _226  and  _228
REMARK   90  A    between atoms: _228  and  _229
REMARK   91  A    between atoms: _231  and  _233
REMARK   92  A    between atoms: _233  and  _234
REMARK   93  A    between atoms: _233  and  _236
REMARK   94  A    between atoms: _236  and  _237
REMARK   95  A    between atoms: _240  and  _242
REMARK   96  A    between atoms: _242  and  _243
REMARK   97  A    between atoms: _246  and  _248
REMARK   98  A    between atoms: _248  and  _249
REMARK   99  A    between atoms: _248  and  _251
REMARK  100  A    between atoms: _251  and  _252
REMARK  101  A    between atoms: _256  and  _257
REMARK  102  A    between atoms: _262  and  _264
REMARK  103  A    between atoms: _264  and  _265
REMARK  104  A    between atoms: _264  and  _267
REMARK  105  A    between atoms: _267  and  _268
REMARK  106  A    between atoms: _270  and  _272
REMARK  107  A    between atoms: _272  and  _273
REMARK  108  A    between atoms: _272  and  _275
REMARK  109  A    between atoms: _275  and  _276
REMARK  110  A    between atoms: _278  and  _280
REMARK  111  A    between atoms: _280  and  _281
REMARK  112  A    between atoms: _283  and  _285
REMARK  113  A    between atoms: _285  and  _286
REMARK  114  A    between atoms: _285  and  _288
REMARK  115  A    between atoms: _288  and  _289
REMARK  116  A    between atoms: _292  and  _294
REMARK  117  A    between atoms: _294  and  _295
REMARK  118  A    between atoms: _298  and  _300
REMARK  119  A    between atoms: _300  and  _301
REMARK  120  A    between atoms: _300  and  _303
REMARK  121  A    between atoms: _303  and  _304
REMARK  122  A    between atoms: _309  and  _310
REMARK  123  A    between atoms: _312  and  _314
REMARK  124  A    between atoms: _314  and  _315
REMARK  125  A    between atoms: _314  and  _317
REMARK  126  A    between atoms: _317  and  _318
REMARK  127  A    between atoms: _321  and  _323
REMARK  128  A    between atoms: _323  and  _324
REMARK  129  A    between atoms: _323  and  _326
REMARK  130  A    between atoms: _326  and  _327
REMARK  131  A    between atoms: _330  and  _332
REMARK  132  A    between atoms: _332  and  _333
REMARK  133  A    between atoms: _332  and  _335
REMARK  134  A    between atoms: _335  and  _336
REMARK  135  A    between atoms: _336  and  _337
REMARK  136  A    between atoms: _337  and  _338
REMARK  137  A    between atoms: _338  and  _339
REMARK  138  A    between atoms: _343  and  _345
REMARK  139  A    between atoms: _345  and  _346
REMARK  140  A    between atoms: _345  and  _348
REMARK  141  A    between atoms: _348  and  _349
REMARK  142  A    between atoms: _351  and  _353
REMARK  143  A    between atoms: _353  and  _354
REMARK  144  A    between atoms: _356  and  _358
REMARK  145  A    between atoms: _358  and  _359
REMARK  146  A    between atoms: _358  and  _361
REMARK  147  A    between atoms: _361  and  _362
REMARK  148  A    between atoms: _365  and  _367
REMARK  149  A    between atoms: _367  and  _368
REMARK  150  A    between atoms: _367  and  _370
REMARK  151  A    between atoms: _370  and  _371
REMARK  152  A    between atoms: _374  and  _376
REMARK  153  A    between atoms: _376  and  _377
REMARK  154  A    between atoms: _380  and  _382
REMARK  155  A    between atoms: _382  and  _383
REMARK  156  A    between atoms: _382  and  _385
REMARK  157  A    between atoms: _385  and  _386
REMARK  158  A    between atoms: _386  and  _387
REMARK  159  A    between atoms: _387  and  _388
REMARK  160  A    between atoms: _397  and  _399
REMARK  161  A    between atoms: _399  and  _400
REMARK  162  A    between atoms: _402  and  _404
REMARK  163  A    between atoms: _404  and  _405
REMARK  164  A    between atoms: _404  and  _407
REMARK  165  A    between atoms: _407  and  _408
REMARK  166  A    between atoms: _414  and  _416
REMARK  167  A    between atoms: _416  and  _417
REMARK  168  A    between atoms: _416  and  _419
REMARK  169  A    between atoms: _419  and  _420
REMARK  170  A    between atoms: _423  and  _425
REMARK  171  A    between atoms: _425  and  _426
REMARK  172  A    between atoms: _425  and  _428
REMARK  173  A    between atoms: _428  and  _429
REMARK  174  A    between atoms: _434  and  _436
REMARK  175  A    between atoms: _436  and  _437
REMARK  176  A    between atoms: _436  and  _439
REMARK  177  A    between atoms: _439  and  _440
REMARK  178  A    between atoms: _443  and  _445
REMARK  179  A    between atoms: _445  and  _446
REMARK  180  A    between atoms: _445  and  _448
REMARK  181  A    between atoms: _448  and  _449
REMARK  182  A    between atoms: _454  and  _455
REMARK  183  A    between atoms: _457  and  _459
REMARK  184  A    between atoms: _459  and  _460
REMARK  185  A    between atoms: _459  and  _462
REMARK  186  A    between atoms: _462  and  _463
REMARK  187  A    between atoms: _466  and  _468
REMARK  188  A    between atoms: _468  and  _469
REMARK  189  A    between atoms: _468  and  _471
REMARK  190  A    between atoms: _471  and  _472
REMARK  191  A    between atoms: _472  and  _473
REMARK  192  A    between atoms: _476  and  _478
REMARK  193  A    between atoms: _478  and  _479
REMARK  194  A    between atoms: _478  and  _481
REMARK  195  A    between atoms: _481  and  _482
REMARK  196  A    between atoms: _485  and  _487
REMARK  197  A    between atoms: _487  and  _488
REMARK  198  A    between atoms: _490  and  _492
REMARK  199  A    between atoms: _492  and  _493
REMARK  200  A    between atoms: _495  and  _497
REMARK  201  A    between atoms: _497  and  _498
REMARK  202  A    between atoms: _497  and  _500
REMARK  203  A    between atoms: _500  and  _501
REMARK  204  A    between atoms: _501  and  _502
REMARK  205  A    between atoms: _507  and  _509
REMARK  206  A    between atoms: _509  and  _510
REMARK  207  A    between atoms: _513  and  _515
REMARK  208  A    between atoms: _515  and  _516
REMARK  209  A    between atoms: _515  and  _518
REMARK  210  A    between atoms: _518  and  _519
REMARK  211  A    between atoms: _522  and  _524
REMARK  212  A    between atoms: _524  and  _525
REMARK  213  A    between atoms: _524  and  _527
REMARK  214  A    between atoms: _527  and  _528
REMARK  215  A    between atoms: _528  and  _529
REMARK  216  A    between atoms: _534  and  _536
REMARK  217  A    between atoms: _536  and  _537
REMARK  218  A    between atoms: _536  and  _539
REMARK  219  A    between atoms: _539  and  _540
REMARK  220  A    between atoms: _543  and  _545
REMARK  221  A    between atoms: _545  and  _546
REMARK  222  A    between atoms: _545  and  _548
REMARK  223  A    between atoms: _548  and  _549
REMARK  224  A    between atoms: _549  and  _550
REMARK  225  A    between atoms: _550  and  _551
REMARK                            x       y       z     vdW  Elec       q    Type
REMARK                         _______ _______ _______ _____ _____    ______ ____
ROOT
ATOM      1  C   ALA A   3      11.163  23.031  53.702  0.00  0.00    +0.241 C 
ATOM      2  O   ALA A   3      11.557  23.748  54.623  0.00  0.00    -0.273 OA
ATOM      3  N   THR A   4       9.919  23.080  53.265  0.00  0.00    -0.295 N 
ATOM      4  H   THR A   4       9.635  22.547  52.418  0.00  0.00    +0.150 HD
ENDROOT
BRANCH   1   5
ATOM      5  CA  ALA A   3      12.114  22.076  52.983  0.00  0.00    +0.149 C 
ATOM      6  CB  ALA A   3      11.511  20.669  52.869  0.00  0.00    +0.031 C 
BRANCH   5   8
ATOM      7  C   SER A   2      14.333  22.935  53.527  0.00  0.00    +0.243 C 
ATOM      8  N   ALA A   3      13.375  22.034  53.725  0.00  0.00    -0.297 N 
ATOM      9  H   ALA A   3      13.526  21.280  54.425  0.00  0.00    +0.150 HD
ATOM     10  O   SER A   2      14.334  23.745  52.607  0.00  0.00    -0.273 OA
BRANCH   7  11
ATOM     11  CA  SER A   2      15.485  22.912  54.507  0.00  0.00    +0.178 C 
BRANCH  11  14
ATOM     12  C   CYS A   1      15.488  21.901  56.692  0.00  0.00    +0.239 C 
ATOM     13  O   CYS A   1      15.604  23.005  57.231  0.00  0.00    -0.274 OA
ATOM     14  N   SER A   2      15.448  21.735  55.368  0.00  0.00    -0.295 N 
ATOM     15  H   SER A   2      15.391  20.781  54.957  0.00  0.00    +0.150 HD
BRANCH  12  16
ATOM     16  CA  CYS A   1      15.415  20.637  57.536  0.00  0.00    +0.156 C 
BRANCH  16  17
ATOM     17  N   CYS A   1      16.309  20.745  58.692  0.00  0.00    -0.237 NA
ATOM     18  H   CYS A   1      16.045  21.359  59.489  0.00  0.00    +0.142 HD
ENDBRANCH  16  17
BRANCH  16  19
ATOM     19  CB  CYS A   1      13.981  20.395  57.997  0.00  0.00    +0.095 C 
ATOM     20  SG  CYS A   1      12.928  19.855  56.628  0.00  0.00    -0.080 S 
ENDBRANCH  16  19
ENDBRANCH  12  16
ENDBRANCH  11  14
BRANCH  11  21
ATOM     21  CB  SER A   2      16.811  22.988  53.752  0.00  0.00    +0.166 C 
BRANCH  21  22
ATOM     22  OG  SER A   2      17.927  23.156  54.633  0.00  0.00    -0.380 OA
ATOM     23  H   SER A   2      17.817  23.995  55.147  0.00  0.00    +0.211 HD
ENDBRANCH  21  22
ENDBRANCH  11  21
ENDBRANCH   7  11
ENDBRANCH   5   8
ENDBRANCH   1   5
BRANCH   3  24
ATOM     24  CA  THR A   4       8.950  23.892  53.987  0.00  0.00    +0.176 C 
BRANCH  24  25
ATOM     25  C   THR A   4       8.622  23.324  55.355  0.00  0.00    +0.243 C 
ATOM     26  N   ASN A   5       8.196  24.195  56.276  0.00  0.00    -0.298 N 
ATOM     27  H   ASN A   5       8.114  25.204  56.039  0.00  0.00    +0.150 HD
ATOM     28  O   THR A   4       8.676  22.105  55.557  0.00  0.00    -0.273 OA
BRANCH  26  29
ATOM     29  CA  ASN A   5       7.848  23.731  57.609  0.00  0.00    +0.146 C 
BRANCH  29  30
ATOM     30  C   ASN A   5       6.826  22.594  57.595  0.00  0.00    +0.227 C 
ATOM     31  O   ASN A   5       6.947  21.639  58.354  0.00  0.00    -0.286 OA
ENDBRANCH  29  30
BRANCH  29  32
ATOM     32  CB  ASN A   5       7.312  24.884  58.457  0.00  0.00    +0.112 C 
BRANCH  32  33
ATOM     33  CG  ASN A   5       8.401  25.619  59.223  0.00  0.00    +0.222 C 
ATOM     34  OD1 ASN A   5       9.064  25.050  60.108  0.00  0.00    -0.275 OA
ATOM     35  ND2 ASN A   5       8.560  26.915  58.920  0.00  0.00    -0.329 N 
ATOM     36 HD21 ASN A   5       9.261  27.487  59.433  0.00  0.00    +0.145 HD
ATOM     37 HD22 ASN A   5       7.983  27.349  58.172  0.00  0.00    +0.145 HD
ENDBRANCH  32  33
ENDBRANCH  29  32
ENDBRANCH  26  29
ENDBRANCH  24  25
BRANCH  24  38
ATOM     38  CB  THR A   4       7.642  24.017  53.238  0.00  0.00    +0.137 C 
ATOM     39  CG2 THR A   4       7.812  24.816  51.968  0.00  0.00    +0.034 C 
BRANCH  38  40
ATOM     40  OG1 THR A   4       7.147  22.712  52.910  0.00  0.00    -0.382 OA
ATOM     41  HG1 THR A   4       6.291  22.799  52.420  0.00  0.00    +0.210 HD
ENDBRANCH  38  40
ENDBRANCH  24  38
ENDBRANCH   3  24
TORSDOF 17
REMARK  Name = ../refined-set-2016/4r73/4r73_pocket.pdb
REMARK  225 active torsions:
REMARK  status: ('A' for Active; 'I' for Inactive)
REMARK    1  A    between atoms: _1  and  _3
REMARK    2  A    between atoms: _3  and  _4
REMARK    3  A    between atoms: _3  and  _6
REMARK    4  A    between atoms: _8  and  _10
REMARK    5  A    between atoms: _10  and  _11
REMARK    6  A    between atoms: _10  and  _13
REMARK    7  A    between atoms: _13  and  _14
REMARK    8  A    between atoms: _16  and  _18
REMARK    9  A    between atoms: _18  and  _19
REMARK   10  A    between atoms: _22  and  _24
REMARK   11  A    between atoms: _24  and  _25
REMARK   12  A    between atoms: _24  and  _27
REMARK   13  A    between atoms: _27  and  _28
REMARK   14  A    between atoms: _31  and  _33
REMARK   15  A    between atoms: _33  and  _34
REMARK   16  A    between atoms: _33  and  _36
REMARK   17  A    between atoms: _36  and  _37
REMARK   18  A    between atoms: _42  and  _44
REMARK   19  A    between atoms: _44  and  _45
REMARK   20  A    between atoms: _44  and  _47
REMARK   21  A    between atoms: _47  and  _48
REMARK   22  A    between atoms: _48  and  _49
REMARK   23  A    between atoms: _51  and  _53
REMARK   24  A    between atoms: _53  and  _54
REMARK   25  A    between atoms: _53  and  _56
REMARK   26  A    between atoms: _56  and  _57
REMARK   27  A    between atoms: _57  and  _58
REMARK   28  A    between atoms: _58  and  _59
REMARK   29  A    between atoms: _68  and  _70
REMARK   30  A    between atoms: _70  and  _71
REMARK   31  A    between atoms: _70  and  _73
REMARK   32  A    between atoms: _73  and  _74
REMARK   33  A    between atoms: _79  and  _81
REMARK   34  A    between atoms: _81  and  _82
REMARK   35  A    between atoms: _84  and  _86
REMARK   36  A    between atoms: _86  and  _87
REMARK   37  A    between atoms: _86  and  _89
REMARK   38  A    between atoms: _89  and  _90
REMARK   39  A    between atoms: _92  and  _94
REMARK   40  A    between atoms: _94  and  _95
REMARK   41  A    between atoms: _97  and  _99
REMARK   42  A    between atoms: _99  and  _100
REMARK   43  A    between atoms: _99  and  _102
REMARK   44  A    between atoms: _102  and  _103
REMARK   45  A    between atoms: _105  and  _107
REMARK   46  A    between atoms: _107  and  _108
REMARK   47  A    between atoms: _107  and  _110
REMARK   48  A    between atoms: _110  and  _111
REMARK   49  A    between atoms: _114  and  _116
REMARK   50  A    between atoms: _116  and  _117
REMARK   51  A    between atoms: _116  and  _119
REMARK   52  A    between atoms: _119  and  _120
REMARK   53  A    between atoms: _126  and  _128
REMARK   54  A    between atoms: _128  and  _129
REMARK   55  A    between atoms: _128  and  _131
REMARK   56  A    between atoms: _131  and  _132
REMARK   57  A    between atoms: _142  and  _144
REMARK   58  A    between atoms: _144  and  _145
REMARK   59  A    between atoms: _144  and  _147
REMARK   60  A    between atoms: _147  and  _148
REMARK   61  A    between atoms: _153  and  _154
REMARK   62  A    between atoms: _156  and  _158
REMARK   63  A    between atoms: _158  and  _159
REMARK   64  A    between atoms: _161  and  _163
REMARK   65  A    between atoms: _163  and  _164
REMARK   66  A    between atoms: _166  and  _168
REMARK   67  A    between atoms: _168  and  _169
REMARK   68  A    between atoms: _168  and  _171
REMARK   69  A    between atoms: _171  and  _172
REMARK   70  A    between atoms: _175  and  _177
REMARK   71  A    between atoms: _177  and  _178
REMARK   72  A    between atoms: _177  and  _180
REMARK   73  A    between atoms: _180  and  _181
REMARK   74  A    between atoms: _185  and  _186
REMARK   75  A    between atoms: _191  and  _193
REMARK   76  A    between atoms: _193  and  _194
REMARK   77  A    between atoms: _193  and  _196
REMARK   78  A    between atoms: _196  and  _197
REMARK   79  A    between atoms: _197  and  _198
REMARK   80  A    between atoms: _203  and  _205
REMARK   81  A    between atoms: _205  and  _206
REMARK   82  A    between atoms: _205  and  _208
REMARK   83  A    between atoms: _208  and  _209
REMARK   84  A    between atoms: _214  and  _215
REMARK   85  A    between atoms: _217  and  _219
REMARK   86  A    between atoms: _219  and  _220
REMARK   87  A    between atoms: _219  and  _222
REMARK   88  A    between atoms: _222  and  _223
REMARK   89  A    between atoms: _226  and  _228
REMARK   90  A    between atoms: _228  and  _229
REMARK   91  A    between atoms: _231  and  _233
REMARK   92  A    between atoms: _233  and  _234
REMARK   93  A    between atoms: _233  and  _236
REMARK   94  A    between atoms: _236  and  _237
REMARK   95  A    between atoms: _240  and  _242
REMARK   96  A    between atoms: _242  and  _243
REMARK   97  A    between atoms: _246  and  _248
REMARK   98  A    between atoms: _248  and  _249
REMARK   99  A    between atoms: _248  and  _251
REMARK  100  A    between atoms: _251  and  _252
REMARK  101  A    between atoms: _256  and  _257
REMARK  102  A    between atoms: _262  and  _264
REMARK  103  A    between atoms: _264  and  _265
REMARK  104  A    between atoms: _264  and  _267
REMARK  105  A    between atoms: _267  and  _268
REMARK  106  A    between atoms: _270  and  _272
REMARK  107  A    between atoms: _272  and  _273
REMARK  108  A    between atoms: _272  and  _275
REMARK  109  A    between atoms: _275  and  _276
REMARK  110  A    between atoms: _278  and  _280
REMARK  111  A    between atoms: _280  and  _281
REMARK  112  A    between atoms: _283  and  _285
REMARK  113  A    between atoms: _285  and  _286
REMARK  114  A    between atoms: _285  and  _288
REMARK  115  A    between atoms: _288  and  _289
REMARK  116  A    between atoms: _292  and  _294
REMARK  117  A    between atoms: _294  and  _295
REMARK  118  A    between atoms: _298  and  _300
REMARK  119  A    between atoms: _300  and  _301
REMARK  120  A    between atoms: _300  and  _303
REMARK  121  A    between atoms: _303  and  _304
REMARK  122  A    between atoms: _309  and  _310
REMARK  123  A    between atoms: _312  and  _314
REMARK  124  A    between atoms: _314  and  _315
REMARK  125  A    between atoms: _314  and  _317
REMARK  126  A    between atoms: _317  and  _318
REMARK  127  A    between atoms: _321  and  _323
REMARK  128  A    between atoms: _323  and  _324
REMARK  129  A    between atoms: _323  and  _326
REMARK  130  A    between atoms: _326  and  _327
REMARK  131  A    between atoms: _330  and  _332
REMARK  132  A    between atoms: _332  and  _333
REMARK  133  A    between atoms: _332  and  _335
REMARK  134  A    between atoms: _335  and  _336
REMARK  135  A    between atoms: _336  and  _337
REMARK  136  A    between atoms: _337  and  _338
REMARK  137  A    between atoms: _338  and  _339
REMARK  138  A    between atoms: _343  and  _345
REMARK  139  A    between atoms: _345  and  _346
REMARK  140  A    between atoms: _345  and  _348
REMARK  141  A    between atoms: _348  and  _349
REMARK  142  A    between atoms: _351  and  _353
REMARK  143  A    between atoms: _353  and  _354
REMARK  144  A    between atoms: _356  and  _358
REMARK  145  A    between atoms: _358  and  _359
REMARK  146  A    between atoms: _358  and  _361
REMARK  147  A    between atoms: _361  and  _362
REMARK  148  A    between atoms: _365  and  _367
REMARK  149  A    between atoms: _367  and  _368
REMARK  150  A    between atoms: _367  and  _370
REMARK  151  A    between atoms: _370  and  _371
REMARK  152  A    between atoms: _374  and  _376
REMARK  153  A    between atoms: _376  and  _377
REMARK  154  A    between atoms: _380  and  _382
REMARK  155  A    between atoms: _382  and  _383
REMARK  156  A    between atoms: _382  and  _385
REMARK  157  A    between atoms: _385  and  _386
REMARK  158  A    between atoms: _386  and  _387
REMARK  159  A    between atoms: _387  and  _388
REMARK  160  A    between atoms: _397  and  _399
REMARK  161  A    between atoms: _399  and  _400
REMARK  162  A    between atoms: _402  and  _404
REMARK  163  A    between atoms: _404  and  _405
REMARK  164  A    between atoms: _404  and  _407
REMARK  165  A    between atoms: _407  and  _408
REMARK  166  A    between atoms: _414  and  _416
REMARK  167  A    between atoms: _416  and  _417
REMARK  168  A    between atoms: _416  and  _419
REMARK  169  A    between atoms: _419  and  _420
REMARK  170  A    between atoms: _423  and  _425
REMARK  171  A    between atoms: _425  and  _426
REMARK  172  A    between atoms: _425  and  _428
REMARK  173  A    between atoms: _428  and  _429
REMARK  174  A    between atoms: _434  and  _436
REMARK  175  A    between atoms: _436  and  _437
REMARK  176  A    between atoms: _436  and  _439
REMARK  177  A    between atoms: _439  and  _440
REMARK  178  A    between atoms: _443  and  _445
REMARK  179  A    between atoms: _445  and  _446
REMARK  180  A    between atoms: _445  and  _448
REMARK  181  A    between atoms: _448  and  _449
REMARK  182  A    between atoms: _454  and  _455
REMARK  183  A    between atoms: _457  and  _459
REMARK  184  A    between atoms: _459  and  _460
REMARK  185  A    between atoms: _459  and  _462
REMARK  186  A    between atoms: _462  and  _463
REMARK  187  A    between atoms: _466  and  _468
REMARK  188  A    between atoms: _468  and  _469
REMARK  189  A    between atoms: _468  and  _471
REMARK  190  A    between atoms: _471  and  _472
REMARK  191  A    between atoms: _472  and  _473
REMARK  192  A    between atoms: _476  and  _478
REMARK  193  A    between atoms: _478  and  _479
REMARK  194  A    between atoms: _478  and  _481
REMARK  195  A    between atoms: _481  and  _482
REMARK  196  A    between atoms: _485  and  _487
REMARK  197  A    between atoms: _487  and  _488
REMARK  198  A    between atoms: _490  and  _492
REMARK  199  A    between atoms: _492  and  _493
REMARK  200  A    between atoms: _495  and  _497
REMARK  201  A    between atoms: _497  and  _498
REMARK  202  A    between atoms: _497  and  _500
REMARK  203  A    between atoms: _500  and  _501
REMARK  204  A    between atoms: _501  and  _502
REMARK  205  A    between atoms: _507  and  _509
REMARK  206  A    between atoms: _509  and  _510
REMARK  207  A    between atoms: _513  and  _515
REMARK  208  A    between atoms: _515  and  _516
REMARK  209  A    between atoms: _515  and  _518
REMARK  210  A    between atoms: _518  and  _519
REMARK  211  A    between atoms: _522  and  _524
REMARK  212  A    between atoms: _524  and  _525
REMARK  213  A    between atoms: _524  and  _527
REMARK  214  A    between atoms: _527  and  _528
REMARK  215  A    between atoms: _528  and  _529
REMARK  216  A    between atoms: _534  and  _536
REMARK  217  A    between atoms: _536  and  _537
REMARK  218  A    between atoms: _536  and  _539
REMARK  219  A    between atoms: _539  and  _540
REMARK  220  A    between atoms: _543  and  _545
REMARK  221  A    between atoms: _545  and  _546
REMARK  222  A    between atoms: _545  and  _548
REMARK  223  A    between atoms: _548  and  _549
REMARK  224  A    between atoms: _549  and  _550
REMARK  225  A    between atoms: _550  and  _551
REMARK                            x       y       z     vdW  Elec       q    Type
REMARK                         _______ _______ _______ _____ _____    ______ ____
ROOT
ATOM      1  CA  MET A   1       6.755  19.066  54.834  0.00  0.00    +0.134 C 
ENDROOT
BRANCH   1   2
ATOM      2  N   MET A   1       6.182  20.320  55.317  0.00  0.00    -0.239 NA
ATOM      3  H   MET A   1       6.477  21.219  54.886  0.00  0.00    +0.142 HD
ENDBRANCH   1   2
BRANCH   1   4
ATOM      4  C   MET A   1       7.654  18.493  55.913  0.00  0.00    +0.224 C 
ATOM      5  O   MET A   1       7.591  17.295  56.211  0.00  0.00    -0.287 OA
ENDBRANCH   1   4
BRANCH   1   6
ATOM      6  CB  MET A   1       7.546  19.257  53.536  0.00  0.00    +0.037 C 
BRANCH   6   7
ATOM      7  CG  MET A   1       8.231  17.979  53.056  0.00  0.00    +0.059 C 
BRANCH   7   8
ATOM      8  SD  MET A   1       9.146  18.161  51.512  0.00  0.00    -0.139 S 
ATOM      9  CE  MET A   1       9.723  16.494  51.217  0.00  0.00    +0.069 C 
ENDBRANCH   7   8
ENDBRANCH   6   7
ENDBRANCH   1   6
TORSDOF 5
REMARK  Name = ../refined-set-2016/4r73/4r73_pocket.pdb
REMARK  225 active torsions:
REMARK  status: ('A' for Active; 'I' for Inactive)
REMARK    1  A    between atoms: _1  and  _3
REMARK    2  A    between atoms: _3  and  _4
REMARK    3  A    between atoms: _3  and  _6
REMARK    4  A    between atoms: _8  and  _10
REMARK    5  A    between atoms: _10  and  _11
REMARK    6  A    between atoms: _10  and  _13
REMARK    7  A    between atoms: _13  and  _14
REMARK    8  A    between atoms: _16  and  _18
REMARK    9  A    between atoms: _18  and  _19
REMARK   10  A    between atoms: _22  and  _24
REMARK   11  A    between atoms: _24  and  _25
REMARK   12  A    between atoms: _24  and  _27
REMARK   13  A    between atoms: _27  and  _28
REMARK   14  A    between atoms: _31  and  _33
REMARK   15  A    between atoms: _33  and  _34
REMARK   16  A    between atoms: _33  and  _36
REMARK   17  A    between atoms: _36  and  _37
REMARK   18  A    between atoms: _42  and  _44
REMARK   19  A    between atoms: _44  and  _45
REMARK   20  A    between atoms: _44  and  _47
REMARK   21  A    between atoms: _47  and  _48
REMARK   22  A    between atoms: _48  and  _49
REMARK   23  A    between atoms: _51  and  _53
REMARK   24  A    between atoms: _53  and  _54
REMARK   25  A    between atoms: _53  and  _56
REMARK   26  A    between atoms: _56  and  _57
REMARK   27  A    between atoms: _57  and  _58
REMARK   28  A    between atoms: _58  and  _59
REMARK   29  A    between atoms: _68  and  _70
REMARK   30  A    between atoms: _70  and  _71
REMARK   31  A    between atoms: _70  and  _73
REMARK   32  A    between atoms: _73  and  _74
REMARK   33  A    between atoms: _79  and  _81
REMARK   34  A    between atoms: _81  and  _82
REMARK   35  A    between atoms: _84  and  _86
REMARK   36  A    between atoms: _86  and  _87
REMARK   37  A    between atoms: _86  and  _89
REMARK   38  A    between atoms: _89  and  _90
REMARK   39  A    between atoms: _92  and  _94
REMARK   40  A    between atoms: _94  and  _95
REMARK   41  A    between atoms: _97  and  _99
REMARK   42  A    between atoms: _99  and  _100
REMARK   43  A    between atoms: _99  and  _102
REMARK   44  A    between atoms: _102  and  _103
REMARK   45  A    between atoms: _105  and  _107
REMARK   46  A    between atoms: _107  and  _108
REMARK   47  A    between atoms: _107  and  _110
REMARK   48  A    between atoms: _110  and  _111
REMARK   49  A    between atoms: _114  and  _116
REMARK   50  A    between atoms: _116  and  _117
REMARK   51  A    between atoms: _116  and  _119
REMARK   52  A    between atoms: _119  and  _120
REMARK   53  A    between atoms: _126  and  _128
REMARK   54  A    between atoms: _128  and  _129
REMARK   55  A    between atoms: _128  and  _131
REMARK   56  A    between atoms: _131  and  _132
REMARK   57  A    between atoms: _142  and  _144
REMARK   58  A    between atoms: _144  and  _145
REMARK   59  A    between atoms: _144  and  _147
REMARK   60  A    between atoms: _147  and  _148
REMARK   61  A    between atoms: _153  and  _154
REMARK   62  A    between atoms: _156  and  _158
REMARK   63  A    between atoms: _158  and  _159
REMARK   64  A    between atoms: _161  and  _163
REMARK   65  A    between atoms: _163  and  _164
REMARK   66  A    between atoms: _166  and  _168
REMARK   67  A    between atoms: _168  and  _169
REMARK   68  A    between atoms: _168  and  _171
REMARK   69  A    between atoms: _171  and  _172
REMARK   70  A    between atoms: _175  and  _177
REMARK   71  A    between atoms: _177  and  _178
REMARK   72  A    between atoms: _177  and  _180
REMARK   73  A    between atoms: _180  and  _181
REMARK   74  A    between atoms: _185  and  _186
REMARK   75  A    between atoms: _191  and  _193
REMARK   76  A    between atoms: _193  and  _194
REMARK   77  A    between atoms: _193  and  _196
REMARK   78  A    between atoms: _196  and  _197
REMARK   79  A    between atoms: _197  and  _198
REMARK   80  A    between atoms: _203  and  _205
REMARK   81  A    between atoms: _205  and  _206
REMARK   82  A    between atoms: _205  and  _208
REMARK   83  A    between atoms: _208  and  _209
REMARK   84  A    between atoms: _214  and  _215
REMARK   85  A    between atoms: _217  and  _219
REMARK   86  A    between atoms: _219  and  _220
REMARK   87  A    between atoms: _219  and  _222
REMARK   88  A    between atoms: _222  and  _223
REMARK   89  A    between atoms: _226  and  _228
REMARK   90  A    between atoms: _228  and  _229
REMARK   91  A    between atoms: _231  and  _233
REMARK   92  A    between atoms: _233  and  _234
REMARK   93  A    between atoms: _233  and  _236
REMARK   94  A    between atoms: _236  and  _237
REMARK   95  A    between atoms: _240  and  _242
REMARK   96  A    between atoms: _242  and  _243
REMARK   97  A    between atoms: _246  and  _248
REMARK   98  A    between atoms: _248  and  _249
REMARK   99  A    between atoms: _248  and  _251
REMARK  100  A    between atoms: _251  and  _252
REMARK  101  A    between atoms: _256  and  _257
REMARK  102  A    between atoms: _262  and  _264
REMARK  103  A    between atoms: _264  and  _265
REMARK  104  A    between atoms: _264  and  _267
REMARK  105  A    between atoms: _267  and  _268
REMARK  106  A    between atoms: _270  and  _272
REMARK  107  A    between atoms: _272  and  _273
REMARK  108  A    between atoms: _272  and  _275
REMARK  109  A    between atoms: _275  and  _276
REMARK  110  A    between atoms: _278  and  _280
REMARK  111  A    between atoms: _280  and  _281
REMARK  112  A    between atoms: _283  and  _285
REMARK  113  A    between atoms: _285  and  _286
REMARK  114  A    between atoms: _285  and  _288
REMARK  115  A    between atoms: _288  and  _289
REMARK  116  A    between atoms: _292  and  _294
REMARK  117  A    between atoms: _294  and  _295
REMARK  118  A    between atoms: _298  and  _300
REMARK  119  A    between atoms: _300  and  _301
REMARK  120  A    between atoms: _300  and  _303
REMARK  121  A    between atoms: _303  and  _304
REMARK  122  A    between atoms: _309  and  _310
REMARK  123  A    between atoms: _312  and  _314
REMARK  124  A    between atoms: _314  and  _315
REMARK  125  A    between atoms: _314  and  _317
REMARK  126  A    between atoms: _317  and  _318
REMARK  127  A    between atoms: _321  and  _323
REMARK  128  A    between atoms: _323  and  _324
REMARK  129  A    between atoms: _323  and  _326
REMARK  130  A    between atoms: _326  and  _327
REMARK  131  A    between atoms: _330  and  _332
REMARK  132  A    between atoms: _332  and  _333
REMARK  133  A    between atoms: _332  and  _335
REMARK  134  A    between atoms: _335  and  _336
REMARK  135  A    between atoms: _336  and  _337
REMARK  136  A    between atoms: _337  and  _338
REMARK  137  A    between atoms: _338  and  _339
REMARK  138  A    between atoms: _343  and  _345
REMARK  139  A    between atoms: _345  and  _346
REMARK  140  A    between atoms: _345  and  _348
REMARK  141  A    between atoms: _348  and  _349
REMARK  142  A    between atoms: _351  and  _353
REMARK  143  A    between atoms: _353  and  _354
REMARK  144  A    between atoms: _356  and  _358
REMARK  145  A    between atoms: _358  and  _359
REMARK  146  A    between atoms: _358  and  _361
REMARK  147  A    between atoms: _361  and  _362
REMARK  148  A    between atoms: _365  and  _367
REMARK  149  A    between atoms: _367  and  _368
REMARK  150  A    between atoms: _367  and  _370
REMARK  151  A    between atoms: _370  and  _371
REMARK  152  A    between atoms: _374  and  _376
REMARK  153  A    between atoms: _376  and  _377
REMARK  154  A    between atoms: _380  and  _382
REMARK  155  A    between atoms: _382  and  _383
REMARK  156  A    between atoms: _382  and  _385
REMARK  157  A    between atoms: _385  and  _386
REMARK  158  A    between atoms: _386  and  _387
REMARK  159  A    between atoms: _387  and  _388
REMARK  160  A    between atoms: _397  and  _399
REMARK  161  A    between atoms: _399  and  _400
REMARK  162  A    between atoms: _402  and  _404
REMARK  163  A    between atoms: _404  and  _405
REMARK  164  A    between atoms: _404  and  _407
REMARK  165  A    between atoms: _407  and  _408
REMARK  166  A    between atoms: _414  and  _416
REMARK  167  A    between atoms: _416  and  _417
REMARK  168  A    between atoms: _416  and  _419
REMARK  169  A    between atoms: _419  and  _420
REMARK  170  A    between atoms: _423  and  _425
REMARK  171  A    between atoms: _425  and  _426
REMARK  172  A    between atoms: _425  and  _428
REMARK  173  A    between atoms: _428  and  _429
REMARK  174  A    between atoms: _434  and  _436
REMARK  175  A    between atoms: _436  and  _437
REMARK  176  A    between atoms: _436  and  _439
REMARK  177  A    between atoms: _439  and  _440
REMARK  178  A    between atoms: _443  and  _445
REMARK  179  A    between atoms: _445  and  _446
REMARK  180  A    between atoms: _445  and  _448
REMARK  181  A    between atoms: _448  and  _449
REMARK  182  A    between atoms: _454  and  _455
REMARK  183  A    between atoms: _457  and  _459
REMARK  184  A    between atoms: _459  and  _460
REMARK  185  A    between atoms: _459  and  _462
REMARK  186  A    between atoms: _462  and  _463
REMARK  187  A    between atoms: _466  and  _468
REMARK  188  A    between atoms: _468  and  _469
REMARK  189  A    between atoms: _468  and  _471
REMARK  190  A    between atoms: _471  and  _472
REMARK  191  A    between atoms: _472  and  _473
REMARK  192  A    between atoms: _476  and  _478
REMARK  193  A    between atoms: _478  and  _479
REMARK  194  A    between atoms: _478  and  _481
REMARK  195  A    between atoms: _481  and  _482
REMARK  196  A    between atoms: _485  and  _487
REMARK  197  A    between atoms: _487  and  _488
REMARK  198  A    between atoms: _490  and  _492
REMARK  199  A    between atoms: _492  and  _493
REMARK  200  A    between atoms: _495  and  _497
REMARK  201  A    between atoms: _497  and  _498
REMARK  202  A    between atoms: _497  and  _500
REMARK  203  A    between atoms: _500  and  _501
REMARK  204  A    between atoms: _501  and  _502
REMARK  205  A    between atoms: _507  and  _509
REMARK  206  A    between atoms: _509  and  _510
REMARK  207  A    between atoms: _513  and  _515
REMARK  208  A    between atoms: _515  and  _516
REMARK  209  A    between atoms: _515  and  _518
REMARK  210  A    between atoms: _518  and  _519
REMARK  211  A    between atoms: _522  and  _524
REMARK  212  A    between atoms: _524  and  _525
REMARK  213  A    between atoms: _524  and  _527
REMARK  214  A    between atoms: _527  and  _528
REMARK  215  A    between atoms: _528  and  _529
REMARK  216  A    between atoms: _534  and  _536
REMARK  217  A    between atoms: _536  and  _537
REMARK  218  A    between atoms: _536  and  _539
REMARK  219  A    between atoms: _539  and  _540
REMARK  220  A    between atoms: _543  and  _545
REMARK  221  A    between atoms: _545  and  _546
REMARK  222  A    between atoms: _545  and  _548
REMARK  223  A    between atoms: _548  and  _549
REMARK  224  A    between atoms: _549  and  _550
REMARK  225  A    between atoms: _550  and  _551
REMARK                            x       y       z     vdW  Elec       q    Type
REMARK                         _______ _______ _______ _____ _____    ______ ____
ROOT
ATOM      1  CA  SER A   4      19.701  25.439  52.136  0.00  0.00    +0.178 C 
ENDROOT
BRANCH   1   4
ATOM      2  C   GLY A   3      18.563  26.832  53.792  0.00  0.00    +0.243 C 
ATOM      3  O   GLY A   3      19.377  26.496  54.670  0.00  0.00    -0.273 OA
ATOM      4  N   SER A   4      18.645  26.400  52.531  0.00  0.00    -0.295 N 
ATOM      5  H   SER A   4      17.964  26.740  51.822  0.00  0.00    +0.150 HD
BRANCH   2   6
ATOM      6  CA  GLY A   3      17.425  27.784  54.110  0.00  0.00    +0.176 C 
BRANCH   6   9
ATOM      7  C   ASN A   2      16.758  26.755  56.216  0.00  0.00    +0.241 C 
ATOM      8  O   ASN A   2      16.681  25.620  55.713  0.00  0.00    -0.273 OA
ATOM      9  N   GLY A   3      17.146  27.839  55.540  0.00  0.00    -0.295 N 
ATOM     10  H   GLY A   3      17.252  28.742  56.044  0.00  0.00    +0.150 HD
BRANCH   7  11
ATOM     11  CA  ASN A   2      16.446  26.956  57.686  0.00  0.00    +0.158 C 
BRANCH  11  14
ATOM     12  C   ARG A   1      14.932  25.909  59.277  0.00  0.00    +0.238 C 
ATOM     13  O   ARG A   1      14.872  26.921  59.986  0.00  0.00    -0.274 OA
ATOM     14  N   ASN A   2      15.695  25.816  58.195  0.00  0.00    -0.297 N 
ATOM     15  H   ASN A   2      15.758  24.905  57.697  0.00  0.00    +0.150 HD
BRANCH  12  16
ATOM     16  CA  ARG A   1      14.201  24.631  59.600  0.00  0.00    +0.145 C 
BRANCH  16  17
ATOM     17  N   ARG A   1      14.244  24.352  61.042  0.00  0.00    -0.238 NA
ATOM     18  H   ARG A   1      13.661  24.893  61.712  0.00  0.00    +0.142 HD
ENDBRANCH  16  17
BRANCH  16  19
ATOM     19  CB  ARG A   1      12.773  24.713  59.027  0.00  0.00    +0.030 C 
BRANCH  19  20
ATOM     20  CG  ARG A   1      12.707  24.626  57.462  0.00  0.00    +0.045 C 
BRANCH  20  21
ATOM     21  CD  ARG A   1      12.778  25.979  56.669  0.00  0.00    +0.174 C 
BRANCH  21  22
ATOM     22  NE  ARG A   1      13.192  25.812  55.266  0.00  0.00    -0.265 N 
ATOM     23  HE  ARG A   1      13.082  24.870  54.840  0.00  0.00    +0.259 HD
ATOM     24  CZ  ARG A   1      13.699  26.782  54.499  0.00  0.00    +0.342 C 
ATOM     25  NH2 ARG A   1      13.840  28.011  54.994  0.00  0.00    -0.292 N 
ATOM     26 HH21 ARG A   1      13.556  28.213  55.974  0.00  0.00    +0.255 HD
ATOM     27 HH22 ARG A   1      14.234  28.769  54.400  0.00  0.00    +0.255 HD
ATOM     28  NH1 ARG A   1      14.075  26.530  53.232  0.00  0.00    -0.292 N 
ATOM     29 HH11 ARG A   1      13.972  25.572  52.840  0.00  0.00    +0.255 HD
ATOM     30 HH12 ARG A   1      14.468  27.293  52.645  0.00  0.00    +0.255 HD
ENDBRANCH  21  22
ENDBRANCH  20  21
ENDBRANCH  19  20
ENDBRANCH  16  19
ENDBRANCH  12  16
ENDBRANCH  11  14
BRANCH  11  31
ATOM     31  CB  ASN A   2      17.732  27.143  58.488  0.00  0.00    +0.114 C 
BRANCH  31  32
ATOM     32  CG  ASN A   2      18.111  28.603  58.639  0.00  0.00    +0.222 C 
ATOM     33  ND2 ASN A   2      18.838  28.907  59.697  0.00  0.00    -0.329 N 
ATOM     34 HD21 ASN A   2      19.132  28.160  60.358  0.00  0.00    +0.145 HD
ATOM     35 HD22 ASN A   2      19.117  29.894  59.870  0.00  0.00    +0.145 HD
ATOM     36  OD1 ASN A   2      17.738  29.447  57.828  0.00  0.00    -0.275 OA
ENDBRANCH  31  32
ENDBRANCH  11  31
ENDBRANCH   7  11
ENDBRANCH   6   9
ENDBRANCH   2   6
ENDBRANCH   1   4
BRANCH   1  37
ATOM     37  C   SER A   4      21.096  26.022  52.355  0.00  0.00    +0.243 C 
ATOM     38  O   SER A   4      21.996  25.333  52.853  0.00  0.00    -0.273 OA
ATOM     39  N   GLY A   5      21.286  27.272  51.937  0.00  0.00    -0.295 N 
ATOM     40  H   GLY A   5      20.508  27.784  51.476  0.00  0.00    +0.150 HD
BRANCH  39  41
ATOM     41  CA  GLY A   5      22.576  27.930  52.120  0.00  0.00    +0.176 C 
BRANCH  41  42
ATOM     42  C   GLY A   5      22.835  28.259  53.579  0.00  0.00    +0.243 C 
ATOM     43  N   SER A   6      21.809  28.767  54.258  0.00  0.00    -0.295 N 
ATOM     44  H   SER A   6      20.916  28.954  53.760  0.00  0.00    +0.150 HD
ATOM     45  O   GLY A   5      23.982  28.075  54.071  0.00  0.00    -0.273 OA
BRANCH  43  46
ATOM     46  CA  SER A   6      21.903  29.067  55.674  0.00  0.00    +0.178 C 
BRANCH  46  47
ATOM     47  C   SER A   6      22.284  27.830  56.485  0.00  0.00    +0.243 C 
ATOM     48  O   SER A   6      23.087  27.895  57.423  0.00  0.00    -0.273 OA
ATOM     49  N   THR A   7      21.745  26.680  56.093  0.00  0.00    -0.295 N 
ATOM     50  H   THR A   7      21.136  26.657  55.251  0.00  0.00    +0.150 HD
BRANCH  49  51
ATOM     51  CA  THR A   7      22.000  25.457  56.831  0.00  0.00    +0.176 C 
BRANCH  51  52
ATOM     52  C   THR A   7      23.431  24.972  56.586  0.00  0.00    +0.243 C 
ATOM     53  O   THR A   7      24.089  24.489  57.504  0.00  0.00    -0.273 OA
ATOM     54  N   PHE A   8      23.879  25.037  55.338  0.00  0.00    -0.298 N 
ATOM     55  H   PHE A   8      23.225  25.287  54.569  0.00  0.00    +0.150 HD
BRANCH  54  56
ATOM     56  CA  PHE A   8      25.280  24.761  55.033  0.00  0.00    +0.141 C 
BRANCH  56  57
ATOM     57  C   PHE A   8      26.201  25.561  55.952  0.00  0.00    +0.227 C 
ATOM     58  O   PHE A   8      27.116  25.002  56.528  0.00  0.00    -0.286 OA
ENDBRANCH  56  57
BRANCH  56  59
ATOM     59  CB  PHE A   8      25.627  25.105  53.598  0.00  0.00    +0.054 C 
BRANCH  59  60
ATOM     60  CG  PHE A   8      27.100  24.985  53.310  0.00  0.00    -0.020 A 
ATOM     61  CD2 PHE A   8      27.922  26.098  53.402  0.00  0.00    -0.004 A 
ATOM     62  CE2 PHE A   8      29.293  25.989  53.155  0.00  0.00    -0.000 A 
ATOM     63  CZ  PHE A   8      29.843  24.759  52.807  0.00  0.00    -0.000 A 
ATOM     64  CE1 PHE A   8      29.033  23.648  52.719  0.00  0.00    -0.000 A 
ATOM     65  CD1 PHE A   8      27.671  23.769  52.980  0.00  0.00    -0.004 A 
ENDBRANCH  59  60
ENDBRANCH  56  59
ENDBRANCH  54  56
ENDBRANCH  51  52
BRANCH  51  66
ATOM     66  CB  THR A   7      20.968  24.368  56.447  0.00  0.00    +0.137 C 
ATOM     67  CG2 THR A   7      21.219  23.059  57.224  0.00  0.00    +0.034 C 
BRANCH  66  68
ATOM     68  OG1 THR A   7      19.674  24.855  56.791  0.00  0.00    -0.382 OA
ATOM     69  HG1 THR A   7      19.494  25.691  56.292  0.00  0.00    +0.210 HD
ENDBRANCH  66  68
ENDBRANCH  51  66
ENDBRANCH  49  51
ENDBRANCH  46  47
BRANCH  46  70
ATOM     70  CB  SER A   6      20.576  29.646  56.155  0.00  0.00    +0.166 C 
BRANCH  70  71
ATOM     71  OG  SER A   6      20.247  30.830  55.427  0.00  0.00    -0.380 OA
ATOM     72  H   SER A   6      20.958  31.506  55.560  0.00  0.00    +0.211 HD
ENDBRANCH  70  71
ENDBRANCH  46  70
ENDBRANCH  43  46
ENDBRANCH  41  42
ENDBRANCH  39  41
ENDBRANCH   1  37
BRANCH   1  73
ATOM     73  CB  SER A   4      19.544  25.018  50.685  0.00  0.00    +0.166 C 
BRANCH  73  74
ATOM     74  OG  SER A   4      18.195  24.664  50.396  0.00  0.00    -0.380 OA
ATOM     75  H   SER A   4      17.607  25.442  50.565  0.00  0.00    +0.211 HD
ENDBRANCH  73  74
ENDBRANCH   1  73
TORSDOF 30
REMARK  Name = ../refined-set-2016/4r73/4r73_pocket.pdb
REMARK  225 active torsions:
REMARK  status: ('A' for Active; 'I' for Inactive)
REMARK    1  A    between atoms: _1  and  _3
REMARK    2  A    between atoms: _3  and  _4
REMARK    3  A    between atoms: _3  and  _6
REMARK    4  A    between atoms: _8  and  _10
REMARK    5  A    between atoms: _10  and  _11
REMARK    6  A    between atoms: _10  and  _13
REMARK    7  A    between atoms: _13  and  _14
REMARK    8  A    between atoms: _16  and  _18
REMARK    9  A    between atoms: _18  and  _19
REMARK   10  A    between atoms: _22  and  _24
REMARK   11  A    between atoms: _24  and  _25
REMARK   12  A    between atoms: _24  and  _27
REMARK   13  A    between atoms: _27  and  _28
REMARK   14  A    between atoms: _31  and  _33
REMARK   15  A    between atoms: _33  and  _34
REMARK   16  A    between atoms: _33  and  _36
REMARK   17  A    between atoms: _36  and  _37
REMARK   18  A    between atoms: _42  and  _44
REMARK   19  A    between atoms: _44  and  _45
REMARK   20  A    between atoms: _44  and  _47
REMARK   21  A    between atoms: _47  and  _48
REMARK   22  A    between atoms: _48  and  _49
REMARK   23  A    between atoms: _51  and  _53
REMARK   24  A    between atoms: _53  and  _54
REMARK   25  A    between atoms: _53  and  _56
REMARK   26  A    between atoms: _56  and  _57
REMARK   27  A    between atoms: _57  and  _58
REMARK   28  A    between atoms: _58  and  _59
REMARK   29  A    between atoms: _68  and  _70
REMARK   30  A    between atoms: _70  and  _71
REMARK   31  A    between atoms: _70  and  _73
REMARK   32  A    between atoms: _73  and  _74
REMARK   33  A    between atoms: _79  and  _81
REMARK   34  A    between atoms: _81  and  _82
REMARK   35  A    between atoms: _84  and  _86
REMARK   36  A    between atoms: _86  and  _87
REMARK   37  A    between atoms: _86  and  _89
REMARK   38  A    between atoms: _89  and  _90
REMARK   39  A    between atoms: _92  and  _94
REMARK   40  A    between atoms: _94  and  _95
REMARK   41  A    between atoms: _97  and  _99
REMARK   42  A    between atoms: _99  and  _100
REMARK   43  A    between atoms: _99  and  _102
REMARK   44  A    between atoms: _102  and  _103
REMARK   45  A    between atoms: _105  and  _107
REMARK   46  A    between atoms: _107  and  _108
REMARK   47  A    between atoms: _107  and  _110
REMARK   48  A    between atoms: _110  and  _111
REMARK   49  A    between atoms: _114  and  _116
REMARK   50  A    between atoms: _116  and  _117
REMARK   51  A    between atoms: _116  and  _119
REMARK   52  A    between atoms: _119  and  _120
REMARK   53  A    between atoms: _126  and  _128
REMARK   54  A    between atoms: _128  and  _129
REMARK   55  A    between atoms: _128  and  _131
REMARK   56  A    between atoms: _131  and  _132
REMARK   57  A    between atoms: _142  and  _144
REMARK   58  A    between atoms: _144  and  _145
REMARK   59  A    between atoms: _144  and  _147
REMARK   60  A    between atoms: _147  and  _148
REMARK   61  A    between atoms: _153  and  _154
REMARK   62  A    between atoms: _156  and  _158
REMARK   63  A    between atoms: _158  and  _159
REMARK   64  A    between atoms: _161  and  _163
REMARK   65  A    between atoms: _163  and  _164
REMARK   66  A    between atoms: _166  and  _168
REMARK   67  A    between atoms: _168  and  _169
REMARK   68  A    between atoms: _168  and  _171
REMARK   69  A    between atoms: _171  and  _172
REMARK   70  A    between atoms: _175  and  _177
REMARK   71  A    between atoms: _177  and  _178
REMARK   72  A    between atoms: _177  and  _180
REMARK   73  A    between atoms: _180  and  _181
REMARK   74  A    between atoms: _185  and  _186
REMARK   75  A    between atoms: _191  and  _193
REMARK   76  A    between atoms: _193  and  _194
REMARK   77  A    between atoms: _193  and  _196
REMARK   78  A    between atoms: _196  and  _197
REMARK   79  A    between atoms: _197  and  _198
REMARK   80  A    between atoms: _203  and  _205
REMARK   81  A    between atoms: _205  and  _206
REMARK   82  A    between atoms: _205  and  _208
REMARK   83  A    between atoms: _208  and  _209
REMARK   84  A    between atoms: _214  and  _215
REMARK   85  A    between atoms: _217  and  _219
REMARK   86  A    between atoms: _219  and  _220
REMARK   87  A    between atoms: _219  and  _222
REMARK   88  A    between atoms: _222  and  _223
REMARK   89  A    between atoms: _226  and  _228
REMARK   90  A    between atoms: _228  and  _229
REMARK   91  A    between atoms: _231  and  _233
REMARK   92  A    between atoms: _233  and  _234
REMARK   93  A    between atoms: _233  and  _236
REMARK   94  A    between atoms: _236  and  _237
REMARK   95  A    between atoms: _240  and  _242
REMARK   96  A    between atoms: _242  and  _243
REMARK   97  A    between atoms: _246  and  _248
REMARK   98  A    between atoms: _248  and  _249
REMARK   99  A    between atoms: _248  and  _251
REMARK  100  A    between atoms: _251  and  _252
REMARK  101  A    between atoms: _256  and  _257
REMARK  102  A    between atoms: _262  and  _264
REMARK  103  A    between atoms: _264  and  _265
REMARK  104  A    between atoms: _264  and  _267
REMARK  105  A    between atoms: _267  and  _268
REMARK  106  A    between atoms: _270  and  _272
REMARK  107  A    between atoms: _272  and  _273
REMARK  108  A    between atoms: _272  and  _275
REMARK  109  A    between atoms: _275  and  _276
REMARK  110  A    between atoms: _278  and  _280
REMARK  111  A    between atoms: _280  and  _281
REMARK  112  A    between atoms: _283  and  _285
REMARK  113  A    between atoms: _285  and  _286
REMARK  114  A    between atoms: _285  and  _288
REMARK  115  A    between atoms: _288  and  _289
REMARK  116  A    between atoms: _292  and  _294
REMARK  117  A    between atoms: _294  and  _295
REMARK  118  A    between atoms: _298  and  _300
REMARK  119  A    between atoms: _300  and  _301
REMARK  120  A    between atoms: _300  and  _303
REMARK  121  A    between atoms: _303  and  _304
REMARK  122  A    between atoms: _309  and  _310
REMARK  123  A    between atoms: _312  and  _314
REMARK  124  A    between atoms: _314  and  _315
REMARK  125  A    between atoms: _314  and  _317
REMARK  126  A    between atoms: _317  and  _318
REMARK  127  A    between atoms: _321  and  _323
REMARK  128  A    between atoms: _323  and  _324
REMARK  129  A    between atoms: _323  and  _326
REMARK  130  A    between atoms: _326  and  _327
REMARK  131  A    between atoms: _330  and  _332
REMARK  132  A    between atoms: _332  and  _333
REMARK  133  A    between atoms: _332  and  _335
REMARK  134  A    between atoms: _335  and  _336
REMARK  135  A    between atoms: _336  and  _337
REMARK  136  A    between atoms: _337  and  _338
REMARK  137  A    between atoms: _338  and  _339
REMARK  138  A    between atoms: _343  and  _345
REMARK  139  A    between atoms: _345  and  _346
REMARK  140  A    between atoms: _345  and  _348
REMARK  141  A    between atoms: _348  and  _349
REMARK  142  A    between atoms: _351  and  _353
REMARK  143  A    between atoms: _353  and  _354
REMARK  144  A    between atoms: _356  and  _358
REMARK  145  A    between atoms: _358  and  _359
REMARK  146  A    between atoms: _358  and  _361
REMARK  147  A    between atoms: _361  and  _362
REMARK  148  A    between atoms: _365  and  _367
REMARK  149  A    between atoms: _367  and  _368
REMARK  150  A    between atoms: _367  and  _370
REMARK  151  A    between atoms: _370  and  _371
REMARK  152  A    between atoms: _374  and  _376
REMARK  153  A    between atoms: _376  and  _377
REMARK  154  A    between atoms: _380  and  _382
REMARK  155  A    between atoms: _382  and  _383
REMARK  156  A    between atoms: _382  and  _385
REMARK  157  A    between atoms: _385  and  _386
REMARK  158  A    between atoms: _386  and  _387
REMARK  159  A    between atoms: _387  and  _388
REMARK  160  A    between atoms: _397  and  _399
REMARK  161  A    between atoms: _399  and  _400
REMARK  162  A    between atoms: _402  and  _404
REMARK  163  A    between atoms: _404  and  _405
REMARK  164  A    between atoms: _404  and  _407
REMARK  165  A    between atoms: _407  and  _408
REMARK  166  A    between atoms: _414  and  _416
REMARK  167  A    between atoms: _416  and  _417
REMARK  168  A    between atoms: _416  and  _419
REMARK  169  A    between atoms: _419  and  _420
REMARK  170  A    between atoms: _423  and  _425
REMARK  171  A    between atoms: _425  and  _426
REMARK  172  A    between atoms: _425  and  _428
REMARK  173  A    between atoms: _428  and  _429
REMARK  174  A    between atoms: _434  and  _436
REMARK  175  A    between atoms: _436  and  _437
REMARK  176  A    between atoms: _436  and  _439
REMARK  177  A    between atoms: _439  and  _440
REMARK  178  A    between atoms: _443  and  _445
REMARK  179  A    between atoms: _445  and  _446
REMARK  180  A    between atoms: _445  and  _448
REMARK  181  A    between atoms: _448  and  _449
REMARK  182  A    between atoms: _454  and  _455
REMARK  183  A    between atoms: _457  and  _459
REMARK  184  A    between atoms: _459  and  _460
REMARK  185  A    between atoms: _459  and  _462
REMARK  186  A    between atoms: _462  and  _463
REMARK  187  A    between atoms: _466  and  _468
REMARK  188  A    between atoms: _468  and  _469
REMARK  189  A    between atoms: _468  and  _471
REMARK  190  A    between atoms: _471  and  _472
REMARK  191  A    between atoms: _472  and  _473
REMARK  192  A    between atoms: _476  and  _478
REMARK  193  A    between atoms: _478  and  _479
REMARK  194  A    between atoms: _478  and  _481
REMARK  195  A    between atoms: _481  and  _482
REMARK  196  A    between atoms: _485  and  _487
REMARK  197  A    between atoms: _487  and  _488
REMARK  198  A    between atoms: _490  and  _492
REMARK  199  A    between atoms: _492  and  _493
REMARK  200  A    between atoms: _495  and  _497
REMARK  201  A    between atoms: _497  and  _498
REMARK  202  A    between atoms: _497  and  _500
REMARK  203  A    between atoms: _500  and  _501
REMARK  204  A    between atoms: _501  and  _502
REMARK  205  A    between atoms: _507  and  _509
REMARK  206  A    between atoms: _509  and  _510
REMARK  207  A    between atoms: _513  and  _515
REMARK  208  A    between atoms: _515  and  _516
REMARK  209  A    between atoms: _515  and  _518
REMARK  210  A    between atoms: _518  and  _519
REMARK  211  A    between atoms: _522  and  _524
REMARK  212  A    between atoms: _524  and  _525
REMARK  213  A    between atoms: _524  and  _527
REMARK  214  A    between atoms: _527  and  _528
REMARK  215  A    between atoms: _528  and  _529
REMARK  216  A    between atoms: _534  and  _536
REMARK  217  A    between atoms: _536  and  _537
REMARK  218  A    between atoms: _536  and  _539
REMARK  219  A    between atoms: _539  and  _540
REMARK  220  A    between atoms: _543  and  _545
REMARK  221  A    between atoms: _545  and  _546
REMARK  222  A    between atoms: _545  and  _548
REMARK  223  A    between atoms: _548  and  _549
REMARK  224  A    between atoms: _549  and  _550
REMARK  225  A    between atoms: _550  and  _551
REMARK                            x       y       z     vdW  Elec       q    Type
REMARK                         _______ _______ _______ _____ _____    ______ ____
ROOT
ATOM      1  C   TYR A   2      16.126  17.972  54.208  0.00  0.00    +0.241 C 
ATOM      2  O   TYR A   2      15.746  18.970  54.796  0.00  0.00    -0.273 OA
ATOM      3  N   GLY A   3      16.016  17.787  52.886  0.00  0.00    -0.295 N 
ATOM      4  H   GLY A   3      16.406  16.921  52.463  0.00  0.00    +0.150 HD
ENDROOT
BRANCH   3   5
ATOM      5  CA  GLY A   3      15.373  18.754  52.034  0.00  0.00    +0.176 C 
BRANCH   5   6
ATOM      6  C   GLY A   3      16.246  19.933  51.743  0.00  0.00    +0.243 C 
ATOM      7  O   GLY A   3      17.414  20.000  52.132  0.00  0.00    -0.273 OA
ATOM      8  N   GLY A   4      15.676  20.861  51.013  0.00  0.00    -0.295 N 
ATOM      9  H   GLY A   4      14.650  20.835  50.843  0.00  0.00    +0.150 HD
BRANCH   8  10
ATOM     10  CA  GLY A   4      16.475  21.914  50.449  0.00  0.00    +0.176 C 
BRANCH  10  11
ATOM     11  C   GLY A   4      17.221  21.371  49.251  0.00  0.00    +0.243 C 
ATOM     12  O   GLY A   4      17.147  20.200  48.927  0.00  0.00    -0.273 OA
ATOM     13  N   THR A   5      17.940  22.241  48.578  0.00  0.00    -0.295 N 
ATOM     14  H   THR A   5      18.044  23.214  48.930  0.00  0.00    +0.150 HD
BRANCH  13  15
ATOM     15  CA  THR A   5      18.592  21.839  47.335  0.00  0.00    +0.176 C 
BRANCH  15  16
ATOM     16  C   THR A   5      19.871  21.015  47.581  0.00  0.00    +0.243 C 
ATOM     17  O   THR A   5      20.548  21.116  48.623  0.00  0.00    -0.273 OA
ATOM     18  N   LEU A   6      20.192  20.203  46.579  0.00  0.00    -0.298 N 
ATOM     19  H   LEU A   6      19.589  20.180  45.732  0.00  0.00    +0.150 HD
BRANCH  18  20
ATOM     20  CA  LEU A   6      21.382  19.333  46.637  0.00  0.00    +0.137 C 
BRANCH  20  21
ATOM     21  C   LEU A   6      22.721  20.093  46.641  0.00  0.00    +0.227 C 
ATOM     22  O   LEU A   6      23.662  19.646  47.304  0.00  0.00    -0.286 OA
ENDBRANCH  20  21
BRANCH  20  23
ATOM     23  CB  LEU A   6      21.381  18.352  45.463  0.00  0.00    +0.028 C 
BRANCH  23  24
ATOM     24  CG  LEU A   6      22.553  17.348  45.535  0.00  0.00    +0.002 C 
ATOM     25  CD2 LEU A   6      22.331  16.456  46.762  0.00  0.00    +0.000 C 
ATOM     26  CD1 LEU A   6      22.613  16.515  44.256  0.00  0.00    +0.000 C 
ENDBRANCH  23  24
ENDBRANCH  20  23
ENDBRANCH  18  20
ENDBRANCH  15  16
BRANCH  15  27
ATOM     27  CB  THR A   5      18.928  23.050  46.472  0.00  0.00    +0.137 C 
ATOM     28  CG2 THR A   5      17.687  23.936  46.280  0.00  0.00    +0.034 C 
BRANCH  27  29
ATOM     29  OG1 THR A   5      19.944  23.831  47.140  0.00  0.00    -0.382 OA
ATOM     30  HG1 THR A   5      20.169  24.620  46.586  0.00  0.00    +0.210 HD
ENDBRANCH  27  29
ENDBRANCH  15  27
ENDBRANCH  13  15
ENDBRANCH  10  11
ENDBRANCH   8  10
ENDBRANCH   5   6
ENDBRANCH   3   5
BRANCH   1  31
ATOM     31  CA  TYR A   2      16.746  16.859  54.997  0.00  0.00    +0.153 C 
BRANCH  31  33
ATOM     32  C   TRP A   1      19.095  16.863  55.760  0.00  0.00    +0.239 C 
ATOM     33  N   TYR A   2      17.854  17.344  55.846  0.00  0.00    -0.297 N 
ATOM     34  H   TYR A   2      17.658  18.093  56.541  0.00  0.00    +0.150 HD
ATOM     35  O   TRP A   1      19.465  16.044  54.909  0.00  0.00    -0.274 OA
BRANCH  32  36
ATOM     36  CA  TRP A   1      20.079  17.317  56.813  0.00  0.00    +0.149 C 
BRANCH  36  37
ATOM     37  N   TRP A   1      20.503  16.104  57.525  0.00  0.00    -0.238 NA
ATOM     38  H   TRP A   1      21.057  15.393  57.006  0.00  0.00    +0.142 HD
ENDBRANCH  36  37
BRANCH  36  39
ATOM     39  CB  TRP A   1      21.301  17.954  56.181  0.00  0.00    +0.054 C 
BRANCH  39  40
ATOM     40  CG  TRP A   1      21.113  19.234  55.445  0.00  0.00    -0.002 A 
ATOM     41  CD1 TRP A   1      19.955  19.964  55.274  0.00  0.00    +0.068 A 
ATOM     42  NE1 TRP A   1      20.239  21.095  54.529  0.00  0.00    -0.352 N 
ATOM     43  CE2 TRP A   1      21.587  21.110  54.248  0.00  0.00    +0.056 A 
ATOM     44  CZ2 TRP A   1      22.365  22.027  53.521  0.00  0.00    +0.017 A 
ATOM     45  CH2 TRP A   1      23.715  21.759  53.390  0.00  0.00    +0.001 A 
ATOM     46  CZ3 TRP A   1      24.295  20.598  53.958  0.00  0.00    +0.000 A 
ATOM     47  CE3 TRP A   1      23.522  19.692  54.636  0.00  0.00    +0.001 A 
ATOM     48  HE1 TRP A   1      19.549  21.814  54.231  0.00  0.00    +0.166 HD
ATOM     49  CD2 TRP A   1      22.146  19.932  54.791  0.00  0.00    +0.013 A 
ENDBRANCH  39  40
ENDBRANCH  36  39
ENDBRANCH  32  36
ENDBRANCH  31  33
BRANCH  31  50
ATOM     50  CB  TYR A   2      15.680  16.207  55.869  0.00  0.00    +0.055 C 
BRANCH  50  51
ATOM     51  CG  TYR A   2      14.457  15.686  55.137  0.00  0.00    -0.020 A 
ATOM     52  CD2 TYR A   2      13.192  16.030  55.547  0.00  0.00    -0.001 A 
ATOM     53  CE2 TYR A   2      12.084  15.546  54.888  0.00  0.00    +0.036 A 
ATOM     54  CZ  TYR A   2      12.219  14.631  53.853  0.00  0.00    +0.134 A 
ATOM     55  CE1 TYR A   2      13.454  14.257  53.432  0.00  0.00    +0.036 A 
ATOM     56  CD1 TYR A   2      14.577  14.774  54.091  0.00  0.00    -0.001 A 
BRANCH  54  57
ATOM     57  OH  TYR A   2      11.102  14.107  53.240  0.00  0.00    -0.506 OA
ATOM     58  HH  TYR A   2      11.382  13.476  52.530  0.00  0.00    +0.292 HD
ENDBRANCH  54  57
ENDBRANCH  50  51
ENDBRANCH  31  50
ENDBRANCH   1  31
TORSDOF 21
REMARK  Name = ../refined-set-2016/4r73/4r73_pocket.pdb
REMARK  225 active torsions:
REMARK  status: ('A' for Active; 'I' for Inactive)
REMARK    1  A    between atoms: _1  and  _3
REMARK    2  A    between atoms: _3  and  _4
REMARK    3  A    between atoms: _3  and  _6
REMARK    4  A    between atoms: _8  and  _10
REMARK    5  A    between atoms: _10  and  _11
REMARK    6  A    between atoms: _10  and  _13
REMARK    7  A    between atoms: _13  and  _14
REMARK    8  A    between atoms: _16  and  _18
REMARK    9  A    between atoms: _18  and  _19
REMARK   10  A    between atoms: _22  and  _24
REMARK   11  A    between atoms: _24  and  _25
REMARK   12  A    between atoms: _24  and  _27
REMARK   13  A    between atoms: _27  and  _28
REMARK   14  A    between atoms: _31  and  _33
REMARK   15  A    between atoms: _33  and  _34
REMARK   16  A    between atoms: _33  and  _36
REMARK   17  A    between atoms: _36  and  _37
REMARK   18  A    between atoms: _42  and  _44
REMARK   19  A    between atoms: _44  and  _45
REMARK   20  A    between atoms: _44  and  _47
REMARK   21  A    between atoms: _47  and  _48
REMARK   22  A    between atoms: _48  and  _49
REMARK   23  A    between atoms: _51  and  _53
REMARK   24  A    between atoms: _53  and  _54
REMARK   25  A    between atoms: _53  and  _56
REMARK   26  A    between atoms: _56  and  _57
REMARK   27  A    between atoms: _57  and  _58
REMARK   28  A    between atoms: _58  and  _59
REMARK   29  A    between atoms: _68  and  _70
REMARK   30  A    between atoms: _70  and  _71
REMARK   31  A    between atoms: _70  and  _73
REMARK   32  A    between atoms: _73  and  _74
REMARK   33  A    between atoms: _79  and  _81
REMARK   34  A    between atoms: _81  and  _82
REMARK   35  A    between atoms: _84  and  _86
REMARK   36  A    between atoms: _86  and  _87
REMARK   37  A    between atoms: _86  and  _89
REMARK   38  A    between atoms: _89  and  _90
REMARK   39  A    between atoms: _92  and  _94
REMARK   40  A    between atoms: _94  and  _95
REMARK   41  A    between atoms: _97  and  _99
REMARK   42  A    between atoms: _99  and  _100
REMARK   43  A    between atoms: _99  and  _102
REMARK   44  A    between atoms: _102  and  _103
REMARK   45  A    between atoms: _105  and  _107
REMARK   46  A    between atoms: _107  and  _108
REMARK   47  A    between atoms: _107  and  _110
REMARK   48  A    between atoms: _110  and  _111
REMARK   49  A    between atoms: _114  and  _116
REMARK   50  A    between atoms: _116  and  _117
REMARK   51  A    between atoms: _116  and  _119
REMARK   52  A    between atoms: _119  and  _120
REMARK   53  A    between atoms: _126  and  _128
REMARK   54  A    between atoms: _128  and  _129
REMARK   55  A    between atoms: _128  and  _131
REMARK   56  A    between atoms: _131  and  _132
REMARK   57  A    between atoms: _142  and  _144
REMARK   58  A    between atoms: _144  and  _145
REMARK   59  A    between atoms: _144  and  _147
REMARK   60  A    between atoms: _147  and  _148
REMARK   61  A    between atoms: _153  and  _154
REMARK   62  A    between atoms: _156  and  _158
REMARK   63  A    between atoms: _158  and  _159
REMARK   64  A    between atoms: _161  and  _163
REMARK   65  A    between atoms: _163  and  _164
REMARK   66  A    between atoms: _166  and  _168
REMARK   67  A    between atoms: _168  and  _169
REMARK   68  A    between atoms: _168  and  _171
REMARK   69  A    between atoms: _171  and  _172
REMARK   70  A    between atoms: _175  and  _177
REMARK   71  A    between atoms: _177  and  _178
REMARK   72  A    between atoms: _177  and  _180
REMARK   73  A    between atoms: _180  and  _181
REMARK   74  A    between atoms: _185  and  _186
REMARK   75  A    between atoms: _191  and  _193
REMARK   76  A    between atoms: _193  and  _194
REMARK   77  A    between atoms: _193  and  _196
REMARK   78  A    between atoms: _196  and  _197
REMARK   79  A    between atoms: _197  and  _198
REMARK   80  A    between atoms: _203  and  _205
REMARK   81  A    between atoms: _205  and  _206
REMARK   82  A    between atoms: _205  and  _208
REMARK   83  A    between atoms: _208  and  _209
REMARK   84  A    between atoms: _214  and  _215
REMARK   85  A    between atoms: _217  and  _219
REMARK   86  A    between atoms: _219  and  _220
REMARK   87  A    between atoms: _219  and  _222
REMARK   88  A    between atoms: _222  and  _223
REMARK   89  A    between atoms: _226  and  _228
REMARK   90  A    between atoms: _228  and  _229
REMARK   91  A    between atoms: _231  and  _233
REMARK   92  A    between atoms: _233  and  _234
REMARK   93  A    between atoms: _233  and  _236
REMARK   94  A    between atoms: _236  and  _237
REMARK   95  A    between atoms: _240  and  _242
REMARK   96  A    between atoms: _242  and  _243
REMARK   97  A    between atoms: _246  and  _248
REMARK   98  A    between atoms: _248  and  _249
REMARK   99  A    between atoms: _248  and  _251
REMARK  100  A    between atoms: _251  and  _252
REMARK  101  A    between atoms: _256  and  _257
REMARK  102  A    between atoms: _262  and  _264
REMARK  103  A    between atoms: _264  and  _265
REMARK  104  A    between atoms: _264  and  _267
REMARK  105  A    between atoms: _267  and  _268
REMARK  106  A    between atoms: _270  and  _272
REMARK  107  A    between atoms: _272  and  _273
REMARK  108  A    between atoms: _272  and  _275
REMARK  109  A    between atoms: _275  and  _276
REMARK  110  A    between atoms: _278  and  _280
REMARK  111  A    between atoms: _280  and  _281
REMARK  112  A    between atoms: _283  and  _285
REMARK  113  A    between atoms: _285  and  _286
REMARK  114  A    between atoms: _285  and  _288
REMARK  115  A    between atoms: _288  and  _289
REMARK  116  A    between atoms: _292  and  _294
REMARK  117  A    between atoms: _294  and  _295
REMARK  118  A    between atoms: _298  and  _300
REMARK  119  A    between atoms: _300  and  _301
REMARK  120  A    between atoms: _300  and  _303
REMARK  121  A    between atoms: _303  and  _304
REMARK  122  A    between atoms: _309  and  _310
REMARK  123  A    between atoms: _312  and  _314
REMARK  124  A    between atoms: _314  and  _315
REMARK  125  A    between atoms: _314  and  _317
REMARK  126  A    between atoms: _317  and  _318
REMARK  127  A    between atoms: _321  and  _323
REMARK  128  A    between atoms: _323  and  _324
REMARK  129  A    between atoms: _323  and  _326
REMARK  130  A    between atoms: _326  and  _327
REMARK  131  A    between atoms: _330  and  _332
REMARK  132  A    between atoms: _332  and  _333
REMARK  133  A    between atoms: _332  and  _335
REMARK  134  A    between atoms: _335  and  _336
REMARK  135  A    between atoms: _336  and  _337
REMARK  136  A    between atoms: _337  and  _338
REMARK  137  A    between atoms: _338  and  _339
REMARK  138  A    between atoms: _343  and  _345
REMARK  139  A    between atoms: _345  and  _346
REMARK  140  A    between atoms: _345  and  _348
REMARK  141  A    between atoms: _348  and  _349
REMARK  142  A    between atoms: _351  and  _353
REMARK  143  A    between atoms: _353  and  _354
REMARK  144  A    between atoms: _356  and  _358
REMARK  145  A    between atoms: _358  and  _359
REMARK  146  A    between atoms: _358  and  _361
REMARK  147  A    between atoms: _361  and  _362
REMARK  148  A    between atoms: _365  and  _367
REMARK  149  A    between atoms: _367  and  _368
REMARK  150  A    between atoms: _367  and  _370
REMARK  151  A    between atoms: _370  and  _371
REMARK  152  A    between atoms: _374  and  _376
REMARK  153  A    between atoms: _376  and  _377
REMARK  154  A    between atoms: _380  and  _382
REMARK  155  A    between atoms: _382  and  _383
REMARK  156  A    between atoms: _382  and  _385
REMARK  157  A    between atoms: _385  and  _386
REMARK  158  A    between atoms: _386  and  _387
REMARK  159  A    between atoms: _387  and  _388
REMARK  160  A    between atoms: _397  and  _399
REMARK  161  A    between atoms: _399  and  _400
REMARK  162  A    between atoms: _402  and  _404
REMARK  163  A    between atoms: _404  and  _405
REMARK  164  A    between atoms: _404  and  _407
REMARK  165  A    between atoms: _407  and  _408
REMARK  166  A    between atoms: _414  and  _416
REMARK  167  A    between atoms: _416  and  _417
REMARK  168  A    between atoms: _416  and  _419
REMARK  169  A    between atoms: _419  and  _420
REMARK  170  A    between atoms: _423  and  _425
REMARK  171  A    between atoms: _425  and  _426
REMARK  172  A    between atoms: _425  and  _428
REMARK  173  A    between atoms: _428  and  _429
REMARK  174  A    between atoms: _434  and  _436
REMARK  175  A    between atoms: _436  and  _437
REMARK  176  A    between atoms: _436  and  _439
REMARK  177  A    between atoms: _439  and  _440
REMARK  178  A    between atoms: _443  and  _445
REMARK  179  A    between atoms: _445  and  _446
REMARK  180  A    between atoms: _445  and  _448
REMARK  181  A    between atoms: _448  and  _449
REMARK  182  A    between atoms: _454  and  _455
REMARK  183  A    between atoms: _457  and  _459
REMARK  184  A    between atoms: _459  and  _460
REMARK  185  A    between atoms: _459  and  _462
REMARK  186  A    between atoms: _462  and  _463
REMARK  187  A    between atoms: _466  and  _468
REMARK  188  A    between atoms: _468  and  _469
REMARK  189  A    between atoms: _468  and  _471
REMARK  190  A    between atoms: _471  and  _472
REMARK  191  A    between atoms: _472  and  _473
REMARK  192  A    between atoms: _476  and  _478
REMARK  193  A    between atoms: _478  and  _479
REMARK  194  A    between atoms: _478  and  _481
REMARK  195  A    between atoms: _481  and  _482
REMARK  196  A    between atoms: _485  and  _487
REMARK  197  A    between atoms: _487  and  _488
REMARK  198  A    between atoms: _490  and  _492
REMARK  199  A    between atoms: _492  and  _493
REMARK  200  A    between atoms: _495  and  _497
REMARK  201  A    between atoms: _497  and  _498
REMARK  202  A    between atoms: _497  and  _500
REMARK  203  A    between atoms: _500  and  _501
REMARK  204  A    between atoms: _501  and  _502
REMARK  205  A    between atoms: _507  and  _509
REMARK  206  A    between atoms: _509  and  _510
REMARK  207  A    between atoms: _513  and  _515
REMARK  208  A    between atoms: _515  and  _516
REMARK  209  A    between atoms: _515  and  _518
REMARK  210  A    between atoms: _518  and  _519
REMARK  211  A    between atoms: _522  and  _524
REMARK  212  A    between atoms: _524  and  _525
REMARK  213  A    between atoms: _524  and  _527
REMARK  214  A    between atoms: _527  and  _528
REMARK  215  A    between atoms: _528  and  _529
REMARK  216  A    between atoms: _534  and  _536
REMARK  217  A    between atoms: _536  and  _537
REMARK  218  A    between atoms: _536  and  _539
REMARK  219  A    between atoms: _539  and  _540
REMARK  220  A    between atoms: _543  and  _545
REMARK  221  A    between atoms: _545  and  _546
REMARK  222  A    between atoms: _545  and  _548
REMARK  223  A    between atoms: _548  and  _549
REMARK  224  A    between atoms: _549  and  _550
REMARK  225  A    between atoms: _550  and  _551
REMARK                            x       y       z     vdW  Elec       q    Type
REMARK                         _______ _______ _______ _____ _____    ______ ____
ROOT
ATOM      1  CA  GLN A   2      24.807  19.309  50.470  0.00  0.00    +0.137 C 
ENDROOT
BRANCH   1   4
ATOM      2  C   PRO A   1      25.324  21.625  50.015  0.00  0.00    +0.239 C 
ATOM      3  O   PRO A   1      26.347  21.548  50.708  0.00  0.00    -0.274 OA
ATOM      4  N   GLN A   2      24.469  20.603  49.874  0.00  0.00    -0.298 N 
ATOM      5  H   GLN A   2      23.579  20.727  49.350  0.00  0.00    +0.150 HD
BRANCH   2   7
ATOM      6  N   PRO A   1      24.283  22.697  48.025  0.00  0.00    -0.210 NA
ATOM      7  CA  PRO A   1      25.050  22.921  49.257  0.00  0.00    +0.149 C 
ATOM      8  CB  PRO A   1      24.182  23.871  50.071  0.00  0.00    +0.028 C 
ATOM      9  CG  PRO A   1      23.033  24.290  49.152  0.00  0.00    +0.021 C 
ATOM     10  CD  PRO A   1      22.931  23.283  48.086  0.00  0.00    +0.089 C 
ENDBRANCH   2   7
ENDBRANCH   1   4
BRANCH   1  11
ATOM     11  C   GLN A   2      25.996  18.665  49.769  0.00  0.00    +0.227 C 
ATOM     12  O   GLN A   2      26.870  18.082  50.420  0.00  0.00    -0.286 OA
ENDBRANCH   1  11
BRANCH   1  13
ATOM     13  CB  GLN A   2      23.590  18.375  50.443  0.00  0.00    +0.037 C 
BRANCH  13  14
ATOM     14  CG  GLN A   2      22.428  18.984  51.250  0.00  0.00    +0.087 C 
BRANCH  14  15
ATOM     15  CD  GLN A   2      21.294  18.027  51.551  0.00  0.00    +0.219 C 
ATOM     16  NE2 GLN A   2      20.103  18.599  51.811  0.00  0.00    -0.329 N 
ATOM     17 HE21 GLN A   2      19.283  18.006  52.053  0.00  0.00    +0.145 HD
ATOM     18 HE22 GLN A   2      20.003  19.633  51.770  0.00  0.00    +0.145 HD
ATOM     19  OE1 GLN A   2      21.475  16.785  51.585  0.00  0.00    -0.275 OA
ENDBRANCH  14  15
ENDBRANCH  13  14
ENDBRANCH   1  13
TORSDOF 6
REMARK  Name = ../refined-set-2016/4r73/4r73_pocket.pdb
REMARK  225 active torsions:
REMARK  status: ('A' for Active; 'I' for Inactive)
REMARK    1  A    between atoms: _1  and  _3
REMARK    2  A    between atoms: _3  and  _4
REMARK    3  A    between atoms: _3  and  _6
REMARK    4  A    between atoms: _8  and  _10
REMARK    5  A    between atoms: _10  and  _11
REMARK    6  A    between atoms: _10  and  _13
REMARK    7  A    between atoms: _13  and  _14
REMARK    8  A    between atoms: _16  and  _18
REMARK    9  A    between atoms: _18  and  _19
REMARK   10  A    between atoms: _22  and  _24
REMARK   11  A    between atoms: _24  and  _25
REMARK   12  A    between atoms: _24  and  _27
REMARK   13  A    between atoms: _27  and  _28
REMARK   14  A    between atoms: _31  and  _33
REMARK   15  A    between atoms: _33  and  _34
REMARK   16  A    between atoms: _33  and  _36
REMARK   17  A    between atoms: _36  and  _37
REMARK   18  A    between atoms: _42  and  _44
REMARK   19  A    between atoms: _44  and  _45
REMARK   20  A    between atoms: _44  and  _47
REMARK   21  A    between atoms: _47  and  _48
REMARK   22  A    between atoms: _48  and  _49
REMARK   23  A    between atoms: _51  and  _53
REMARK   24  A    between atoms: _53  and  _54
REMARK   25  A    between atoms: _53  and  _56
REMARK   26  A    between atoms: _56  and  _57
REMARK   27  A    between atoms: _57  and  _58
REMARK   28  A    between atoms: _58  and  _59
REMARK   29  A    between atoms: _68  and  _70
REMARK   30  A    between atoms: _70  and  _71
REMARK   31  A    between atoms: _70  and  _73
REMARK   32  A    between atoms: _73  and  _74
REMARK   33  A    between atoms: _79  and  _81
REMARK   34  A    between atoms: _81  and  _82
REMARK   35  A    between atoms: _84  and  _86
REMARK   36  A    between atoms: _86  and  _87
REMARK   37  A    between atoms: _86  and  _89
REMARK   38  A    between atoms: _89  and  _90
REMARK   39  A    between atoms: _92  and  _94
REMARK   40  A    between atoms: _94  and  _95
REMARK   41  A    between atoms: _97  and  _99
REMARK   42  A    between atoms: _99  and  _100
REMARK   43  A    between atoms: _99  and  _102
REMARK   44  A    between atoms: _102  and  _103
REMARK   45  A    between atoms: _105  and  _107
REMARK   46  A    between atoms: _107  and  _108
REMARK   47  A    between atoms: _107  and  _110
REMARK   48  A    between atoms: _110  and  _111
REMARK   49  A    between atoms: _114  and  _116
REMARK   50  A    between atoms: _116  and  _117
REMARK   51  A    between atoms: _116  and  _119
REMARK   52  A    between atoms: _119  and  _120
REMARK   53  A    between atoms: _126  and  _128
REMARK   54  A    between atoms: _128  and  _129
REMARK   55  A    between atoms: _128  and  _131
REMARK   56  A    between atoms: _131  and  _132
REMARK   57  A    between atoms: _142  and  _144
REMARK   58  A    between atoms: _144  and  _145
REMARK   59  A    between atoms: _144  and  _147
REMARK   60  A    between atoms: _147  and  _148
REMARK   61  A    between atoms: _153  and  _154
REMARK   62  A    between atoms: _156  and  _158
REMARK   63  A    between atoms: _158  and  _159
REMARK   64  A    between atoms: _161  and  _163
REMARK   65  A    between atoms: _163  and  _164
REMARK   66  A    between atoms: _166  and  _168
REMARK   67  A    between atoms: _168  and  _169
REMARK   68  A    between atoms: _168  and  _171
REMARK   69  A    between atoms: _171  and  _172
REMARK   70  A    between atoms: _175  and  _177
REMARK   71  A    between atoms: _177  and  _178
REMARK   72  A    between atoms: _177  and  _180
REMARK   73  A    between atoms: _180  and  _181
REMARK   74  A    between atoms: _185  and  _186
REMARK   75  A    between atoms: _191  and  _193
REMARK   76  A    between atoms: _193  and  _194
REMARK   77  A    between atoms: _193  and  _196
REMARK   78  A    between atoms: _196  and  _197
REMARK   79  A    between atoms: _197  and  _198
REMARK   80  A    between atoms: _203  and  _205
REMARK   81  A    between atoms: _205  and  _206
REMARK   82  A    between atoms: _205  and  _208
REMARK   83  A    between atoms: _208  and  _209
REMARK   84  A    between atoms: _214  and  _215
REMARK   85  A    between atoms: _217  and  _219
REMARK   86  A    between atoms: _219  and  _220
REMARK   87  A    between atoms: _219  and  _222
REMARK   88  A    between atoms: _222  and  _223
REMARK   89  A    between atoms: _226  and  _228
REMARK   90  A    between atoms: _228  and  _229
REMARK   91  A    between atoms: _231  and  _233
REMARK   92  A    between atoms: _233  and  _234
REMARK   93  A    between atoms: _233  and  _236
REMARK   94  A    between atoms: _236  and  _237
REMARK   95  A    between atoms: _240  and  _242
REMARK   96  A    between atoms: _242  and  _243
REMARK   97  A    between atoms: _246  and  _248
REMARK   98  A    between atoms: _248  and  _249
REMARK   99  A    between atoms: _248  and  _251
REMARK  100  A    between atoms: _251  and  _252
REMARK  101  A    between atoms: _256  and  _257
REMARK  102  A    between atoms: _262  and  _264
REMARK  103  A    between atoms: _264  and  _265
REMARK  104  A    between atoms: _264  and  _267
REMARK  105  A    between atoms: _267  and  _268
REMARK  106  A    between atoms: _270  and  _272
REMARK  107  A    between atoms: _272  and  _273
REMARK  108  A    between atoms: _272  and  _275
REMARK  109  A    between atoms: _275  and  _276
REMARK  110  A    between atoms: _278  and  _280
REMARK  111  A    between atoms: _280  and  _281
REMARK  112  A    between atoms: _283  and  _285
REMARK  113  A    between atoms: _285  and  _286
REMARK  114  A    between atoms: _285  and  _288
REMARK  115  A    between atoms: _288  and  _289
REMARK  116  A    between atoms: _292  and  _294
REMARK  117  A    between atoms: _294  and  _295
REMARK  118  A    between atoms: _298  and  _300
REMARK  119  A    between atoms: _300  and  _301
REMARK  120  A    between atoms: _300  and  _303
REMARK  121  A    between atoms: _303  and  _304
REMARK  122  A    between atoms: _309  and  _310
REMARK  123  A    between atoms: _312  and  _314
REMARK  124  A    between atoms: _314  and  _315
REMARK  125  A    between atoms: _314  and  _317
REMARK  126  A    between atoms: _317  and  _318
REMARK  127  A    between atoms: _321  and  _323
REMARK  128  A    between atoms: _323  and  _324
REMARK  129  A    between atoms: _323  and  _326
REMARK  130  A    between atoms: _326  and  _327
REMARK  131  A    between atoms: _330  and  _332
REMARK  132  A    between atoms: _332  and  _333
REMARK  133  A    between atoms: _332  and  _335
REMARK  134  A    between atoms: _335  and  _336
REMARK  135  A    between atoms: _336  and  _337
REMARK  136  A    between atoms: _337  and  _338
REMARK  137  A    between atoms: _338  and  _339
REMARK  138  A    between atoms: _343  and  _345
REMARK  139  A    between atoms: _345  and  _346
REMARK  140  A    between atoms: _345  and  _348
REMARK  141  A    between atoms: _348  and  _349
REMARK  142  A    between atoms: _351  and  _353
REMARK  143  A    between atoms: _353  and  _354
REMARK  144  A    between atoms: _356  and  _358
REMARK  145  A    between atoms: _358  and  _359
REMARK  146  A    between atoms: _358  and  _361
REMARK  147  A    between atoms: _361  and  _362
REMARK  148  A    between atoms: _365  and  _367
REMARK  149  A    between atoms: _367  and  _368
REMARK  150  A    between atoms: _367  and  _370
REMARK  151  A    between atoms: _370  and  _371
REMARK  152  A    between atoms: _374  and  _376
REMARK  153  A    between atoms: _376  and  _377
REMARK  154  A    between atoms: _380  and  _382
REMARK  155  A    between atoms: _382  and  _383
REMARK  156  A    between atoms: _382  and  _385
REMARK  157  A    between atoms: _385  and  _386
REMARK  158  A    between atoms: _386  and  _387
REMARK  159  A    between atoms: _387  and  _388
REMARK  160  A    between atoms: _397  and  _399
REMARK  161  A    between atoms: _399  and  _400
REMARK  162  A    between atoms: _402  and  _404
REMARK  163  A    between atoms: _404  and  _405
REMARK  164  A    between atoms: _404  and  _407
REMARK  165  A    between atoms: _407  and  _408
REMARK  166  A    between atoms: _414  and  _416
REMARK  167  A    between atoms: _416  and  _417
REMARK  168  A    between atoms: _416  and  _419
REMARK  169  A    between atoms: _419  and  _420
REMARK  170  A    between atoms: _423  and  _425
REMARK  171  A    between atoms: _425  and  _426
REMARK  172  A    between atoms: _425  and  _428
REMARK  173  A    between atoms: _428  and  _429
REMARK  174  A    between atoms: _434  and  _436
REMARK  175  A    between atoms: _436  and  _437
REMARK  176  A    between atoms: _436  and  _439
REMARK  177  A    between atoms: _439  and  _440
REMARK  178  A    between atoms: _443  and  _445
REMARK  179  A    between atoms: _445  and  _446
REMARK  180  A    between atoms: _445  and  _448
REMARK  181  A    between atoms: _448  and  _449
REMARK  182  A    between atoms: _454  and  _455
REMARK  183  A    between atoms: _457  and  _459
REMARK  184  A    between atoms: _459  and  _460
REMARK  185  A    between atoms: _459  and  _462
REMARK  186  A    between atoms: _462  and  _463
REMARK  187  A    between atoms: _466  and  _468
REMARK  188  A    between atoms: _468  and  _469
REMARK  189  A    between atoms: _468  and  _471
REMARK  190  A    between atoms: _471  and  _472
REMARK  191  A    between atoms: _472  and  _473
REMARK  192  A    between atoms: _476  and  _478
REMARK  193  A    between atoms: _478  and  _479
REMARK  194  A    between atoms: _478  and  _481
REMARK  195  A    between atoms: _481  and  _482
REMARK  196  A    between atoms: _485  and  _487
REMARK  197  A    between atoms: _487  and  _488
REMARK  198  A    between atoms: _490  and  _492
REMARK  199  A    between atoms: _492  and  _493
REMARK  200  A    between atoms: _495  and  _497
REMARK  201  A    between atoms: _497  and  _498
REMARK  202  A    between atoms: _497  and  _500
REMARK  203  A    between atoms: _500  and  _501
REMARK  204  A    between atoms: _501  and  _502
REMARK  205  A    between atoms: _507  and  _509
REMARK  206  A    between atoms: _509  and  _510
REMARK  207  A    between atoms: _513  and  _515
REMARK  208  A    between atoms: _515  and  _516
REMARK  209  A    between atoms: _515  and  _518
REMARK  210  A    between atoms: _518  and  _519
REMARK  211  A    between atoms: _522  and  _524
REMARK  212  A    between atoms: _524  and  _525
REMARK  213  A    between atoms: _524  and  _527
REMARK  214  A    between atoms: _527  and  _528
REMARK  215  A    between atoms: _528  and  _529
REMARK  216  A    between atoms: _534  and  _536
REMARK  217  A    between atoms: _536  and  _537
REMARK  218  A    between atoms: _536  and  _539
REMARK  219  A    between atoms: _539  and  _540
REMARK  220  A    between atoms: _543  and  _545
REMARK  221  A    between atoms: _545  and  _546
REMARK  222  A    between atoms: _545  and  _548
REMARK  223  A    between atoms: _548  and  _549
REMARK  224  A    between atoms: _549  and  _550
REMARK  225  A    between atoms: _550  and  _551
REMARK                            x       y       z     vdW  Elec       q    Type
REMARK                         _______ _______ _______ _____ _____    ______ ____
ROOT
ATOM      1  CA  ILE A   2      12.915  16.958  42.093  0.00  0.00    +0.148 C 
ENDROOT
BRANCH   1   4
ATOM      2  C   TYR A   1      13.331  15.657  44.128  0.00  0.00    +0.239 C 
ATOM      3  O   TYR A   1      14.540  15.886  44.133  0.00  0.00    -0.274 OA
ATOM      4  N   ILE A   2      12.503  16.080  43.190  0.00  0.00    -0.297 N 
ATOM      5  H   ILE A   2      11.510  15.775  43.233  0.00  0.00    +0.150 HD
BRANCH   2   6
ATOM      6  CA  TYR A   1      12.694  14.803  45.200  0.00  0.00    +0.149 C 
BRANCH   6   7
ATOM      7  N   TYR A   1      13.763  14.251  46.043  0.00  0.00    -0.238 NA
ATOM      8  H   TYR A   1      14.722  14.652  46.004  0.00  0.00    +0.142 HD
ENDBRANCH   6   7
BRANCH   6   9
ATOM      9  CB  TYR A   1      11.662  15.603  46.031  0.00  0.00    +0.053 C 
BRANCH   9  10
ATOM     10  CG  TYR A   1      12.152  16.772  46.871  0.00  0.00    -0.020 A 
ATOM     11  CD2 TYR A   1      12.094  16.703  48.249  0.00  0.00    -0.001 A 
ATOM     12  CE2 TYR A   1      12.482  17.765  49.053  0.00  0.00    +0.036 A 
ATOM     13  CZ  TYR A   1      12.956  18.928  48.468  0.00  0.00    +0.134 A 
ATOM     14  CE1 TYR A   1      13.002  19.058  47.090  0.00  0.00    +0.036 A 
ATOM     15  CD1 TYR A   1      12.606  17.949  46.291  0.00  0.00    -0.001 A 
BRANCH  13  16
ATOM     16  OH  TYR A   1      13.313  19.951  49.315  0.00  0.00    -0.506 OA
ATOM     17  HH  TYR A   1      13.634  20.722  48.783  0.00  0.00    +0.292 HD
ENDBRANCH  13  16
ENDBRANCH   9  10
ENDBRANCH   6   9
ENDBRANCH   2   6
ENDBRANCH   1   4
BRANCH   1  18
ATOM     18  C   ILE A   2      11.996  18.180  42.085  0.00  0.00    +0.241 C 
ATOM     19  O   ILE A   2      10.767  18.050  42.173  0.00  0.00    -0.273 OA
ATOM     20  N   GLY A   3      12.588  19.381  41.955  0.00  0.00    -0.295 N 
ATOM     21  H   GLY A   3      13.626  19.431  41.909  0.00  0.00    +0.150 HD
BRANCH  20  22
ATOM     22  CA  GLY A   3      11.814  20.614  41.877  0.00  0.00    +0.176 C 
BRANCH  22  23
ATOM     23  C   GLY A   3      12.225  21.352  40.612  0.00  0.00    +0.243 C 
ATOM     24  O   GLY A   3      13.407  21.552  40.376  0.00  0.00    -0.273 OA
ATOM     25  N   ILE A   4      11.257  21.761  39.805  0.00  0.00    -0.298 N 
ATOM     26  H   ILE A   4      10.269  21.602  40.087  0.00  0.00    +0.150 HD
BRANCH  25  27
ATOM     27  CA  ILE A   4      11.526  22.421  38.545  0.00  0.00    +0.137 C 
BRANCH  27  28
ATOM     28  C   ILE A   4      11.667  23.917  38.753  0.00  0.00    +0.227 C 
ATOM     29  O   ILE A   4      10.784  24.573  39.339  0.00  0.00    -0.286 OA
ENDBRANCH  27  28
BRANCH  27  30
ATOM     30  CB  ILE A   4      10.367  22.155  37.527  0.00  0.00    +0.026 C 
ATOM     31  CG2 ILE A   4      10.668  22.792  36.168  0.00  0.00    +0.002 C 
BRANCH  30  32
ATOM     32  CG1 ILE A   4      10.142  20.645  37.385  0.00  0.00    +0.002 C 
ATOM     33  CD1 ILE A   4      11.352  19.864  36.954  0.00  0.00    +0.000 C 
ENDBRANCH  30  32
ENDBRANCH  27  30
ENDBRANCH  25  27
ENDBRANCH  22  23
ENDBRANCH  20  22
ENDBRANCH   1  18
BRANCH   1  34
ATOM     34  CB  ILE A   2      12.848  16.240  40.711  0.00  0.00    +0.027 C 
ATOM     35  CG2 ILE A   2      13.399  17.152  39.608  0.00  0.00    +0.002 C 
BRANCH  34  36
ATOM     36  CG1 ILE A   2      13.678  14.976  40.710  0.00  0.00    +0.002 C 
ATOM     37  CD1 ILE A   2      12.866  13.818  40.163  0.00  0.00    +0.000 C 
ENDBRANCH  34  36
ENDBRANCH   1  34
TORSDOF 15
REMARK  Name = ../refined-set-2016/4r73/4r73_pocket.pdb
REMARK  225 active torsions:
REMARK  status: ('A' for Active; 'I' for Inactive)
REMARK    1  A    between atoms: _1  and  _3
REMARK    2  A    between atoms: _3  and  _4
REMARK    3  A    between atoms: _3  and  _6
REMARK    4  A    between atoms: _8  and  _10
REMARK    5  A    between atoms: _10  and  _11
REMARK    6  A    between atoms: _10  and  _13
REMARK    7  A    between atoms: _13  and  _14
REMARK    8  A    between atoms: _16  and  _18
REMARK    9  A    between atoms: _18  and  _19
REMARK   10  A    between atoms: _22  and  _24
REMARK   11  A    between atoms: _24  and  _25
REMARK   12  A    between atoms: _24  and  _27
REMARK   13  A    between atoms: _27  and  _28
REMARK   14  A    between atoms: _31  and  _33
REMARK   15  A    between atoms: _33  and  _34
REMARK   16  A    between atoms: _33  and  _36
REMARK   17  A    between atoms: _36  and  _37
REMARK   18  A    between atoms: _42  and  _44
REMARK   19  A    between atoms: _44  and  _45
REMARK   20  A    between atoms: _44  and  _47
REMARK   21  A    between atoms: _47  and  _48
REMARK   22  A    between atoms: _48  and  _49
REMARK   23  A    between atoms: _51  and  _53
REMARK   24  A    between atoms: _53  and  _54
REMARK   25  A    between atoms: _53  and  _56
REMARK   26  A    between atoms: _56  and  _57
REMARK   27  A    between atoms: _57  and  _58
REMARK   28  A    between atoms: _58  and  _59
REMARK   29  A    between atoms: _68  and  _70
REMARK   30  A    between atoms: _70  and  _71
REMARK   31  A    between atoms: _70  and  _73
REMARK   32  A    between atoms: _73  and  _74
REMARK   33  A    between atoms: _79  and  _81
REMARK   34  A    between atoms: _81  and  _82
REMARK   35  A    between atoms: _84  and  _86
REMARK   36  A    between atoms: _86  and  _87
REMARK   37  A    between atoms: _86  and  _89
REMARK   38  A    between atoms: _89  and  _90
REMARK   39  A    between atoms: _92  and  _94
REMARK   40  A    between atoms: _94  and  _95
REMARK   41  A    between atoms: _97  and  _99
REMARK   42  A    between atoms: _99  and  _100
REMARK   43  A    between atoms: _99  and  _102
REMARK   44  A    between atoms: _102  and  _103
REMARK   45  A    between atoms: _105  and  _107
REMARK   46  A    between atoms: _107  and  _108
REMARK   47  A    between atoms: _107  and  _110
REMARK   48  A    between atoms: _110  and  _111
REMARK   49  A    between atoms: _114  and  _116
REMARK   50  A    between atoms: _116  and  _117
REMARK   51  A    between atoms: _116  and  _119
REMARK   52  A    between atoms: _119  and  _120
REMARK   53  A    between atoms: _126  and  _128
REMARK   54  A    between atoms: _128  and  _129
REMARK   55  A    between atoms: _128  and  _131
REMARK   56  A    between atoms: _131  and  _132
REMARK   57  A    between atoms: _142  and  _144
REMARK   58  A    between atoms: _144  and  _145
REMARK   59  A    between atoms: _144  and  _147
REMARK   60  A    between atoms: _147  and  _148
REMARK   61  A    between atoms: _153  and  _154
REMARK   62  A    between atoms: _156  and  _158
REMARK   63  A    between atoms: _158  and  _159
REMARK   64  A    between atoms: _161  and  _163
REMARK   65  A    between atoms: _163  and  _164
REMARK   66  A    between atoms: _166  and  _168
REMARK   67  A    between atoms: _168  and  _169
REMARK   68  A    between atoms: _168  and  _171
REMARK   69  A    between atoms: _171  and  _172
REMARK   70  A    between atoms: _175  and  _177
REMARK   71  A    between atoms: _177  and  _178
REMARK   72  A    between atoms: _177  and  _180
REMARK   73  A    between atoms: _180  and  _181
REMARK   74  A    between atoms: _185  and  _186
REMARK   75  A    between atoms: _191  and  _193
REMARK   76  A    between atoms: _193  and  _194
REMARK   77  A    between atoms: _193  and  _196
REMARK   78  A    between atoms: _196  and  _197
REMARK   79  A    between atoms: _197  and  _198
REMARK   80  A    between atoms: _203  and  _205
REMARK   81  A    between atoms: _205  and  _206
REMARK   82  A    between atoms: _205  and  _208
REMARK   83  A    between atoms: _208  and  _209
REMARK   84  A    between atoms: _214  and  _215
REMARK   85  A    between atoms: _217  and  _219
REMARK   86  A    between atoms: _219  and  _220
REMARK   87  A    between atoms: _219  and  _222
REMARK   88  A    between atoms: _222  and  _223
REMARK   89  A    between atoms: _226  and  _228
REMARK   90  A    between atoms: _228  and  _229
REMARK   91  A    between atoms: _231  and  _233
REMARK   92  A    between atoms: _233  and  _234
REMARK   93  A    between atoms: _233  and  _236
REMARK   94  A    between atoms: _236  and  _237
REMARK   95  A    between atoms: _240  and  _242
REMARK   96  A    between atoms: _242  and  _243
REMARK   97  A    between atoms: _246  and  _248
REMARK   98  A    between atoms: _248  and  _249
REMARK   99  A    between atoms: _248  and  _251
REMARK  100  A    between atoms: _251  and  _252
REMARK  101  A    between atoms: _256  and  _257
REMARK  102  A    between atoms: _262  and  _264
REMARK  103  A    between atoms: _264  and  _265
REMARK  104  A    between atoms: _264  and  _267
REMARK  105  A    between atoms: _267  and  _268
REMARK  106  A    between atoms: _270  and  _272
REMARK  107  A    between atoms: _272  and  _273
REMARK  108  A    between atoms: _272  and  _275
REMARK  109  A    between atoms: _275  and  _276
REMARK  110  A    between atoms: _278  and  _280
REMARK  111  A    between atoms: _280  and  _281
REMARK  112  A    between atoms: _283  and  _285
REMARK  113  A    between atoms: _285  and  _286
REMARK  114  A    between atoms: _285  and  _288
REMARK  115  A    between atoms: _288  and  _289
REMARK  116  A    between atoms: _292  and  _294
REMARK  117  A    between atoms: _294  and  _295
REMARK  118  A    between atoms: _298  and  _300
REMARK  119  A    between atoms: _300  and  _301
REMARK  120  A    between atoms: _300  and  _303
REMARK  121  A    between atoms: _303  and  _304
REMARK  122  A    between atoms: _309  and  _310
REMARK  123  A    between atoms: _312  and  _314
REMARK  124  A    between atoms: _314  and  _315
REMARK  125  A    between atoms: _314  and  _317
REMARK  126  A    between atoms: _317  and  _318
REMARK  127  A    between atoms: _321  and  _323
REMARK  128  A    between atoms: _323  and  _324
REMARK  129  A    between atoms: _323  and  _326
REMARK  130  A    between atoms: _326  and  _327
REMARK  131  A    between atoms: _330  and  _332
REMARK  132  A    between atoms: _332  and  _333
REMARK  133  A    between atoms: _332  and  _335
REMARK  134  A    between atoms: _335  and  _336
REMARK  135  A    between atoms: _336  and  _337
REMARK  136  A    between atoms: _337  and  _338
REMARK  137  A    between atoms: _338  and  _339
REMARK  138  A    between atoms: _343  and  _345
REMARK  139  A    between atoms: _345  and  _346
REMARK  140  A    between atoms: _345  and  _348
REMARK  141  A    between atoms: _348  and  _349
REMARK  142  A    between atoms: _351  and  _353
REMARK  143  A    between atoms: _353  and  _354
REMARK  144  A    between atoms: _356  and  _358
REMARK  145  A    between atoms: _358  and  _359
REMARK  146  A    between atoms: _358  and  _361
REMARK  147  A    between atoms: _361  and  _362
REMARK  148  A    between atoms: _365  and  _367
REMARK  149  A    between atoms: _367  and  _368
REMARK  150  A    between atoms: _367  and  _370
REMARK  151  A    between atoms: _370  and  _371
REMARK  152  A    between atoms: _374  and  _376
REMARK  153  A    between atoms: _376  and  _377
REMARK  154  A    between atoms: _380  and  _382
REMARK  155  A    between atoms: _382  and  _383
REMARK  156  A    between atoms: _382  and  _385
REMARK  157  A    between atoms: _385  and  _386
REMARK  158  A    between atoms: _386  and  _387
REMARK  159  A    between atoms: _387  and  _388
REMARK  160  A    between atoms: _397  and  _399
REMARK  161  A    between atoms: _399  and  _400
REMARK  162  A    between atoms: _402  and  _404
REMARK  163  A    between atoms: _404  and  _405
REMARK  164  A    between atoms: _404  and  _407
REMARK  165  A    between atoms: _407  and  _408
REMARK  166  A    between atoms: _414  and  _416
REMARK  167  A    between atoms: _416  and  _417
REMARK  168  A    between atoms: _416  and  _419
REMARK  169  A    between atoms: _419  and  _420
REMARK  170  A    between atoms: _423  and  _425
REMARK  171  A    between atoms: _425  and  _426
REMARK  172  A    between atoms: _425  and  _428
REMARK  173  A    between atoms: _428  and  _429
REMARK  174  A    between atoms: _434  and  _436
REMARK  175  A    between atoms: _436  and  _437
REMARK  176  A    between atoms: _436  and  _439
REMARK  177  A    between atoms: _439  and  _440
REMARK  178  A    between atoms: _443  and  _445
REMARK  179  A    between atoms: _445  and  _446
REMARK  180  A    between atoms: _445  and  _448
REMARK  181  A    between atoms: _448  and  _449
REMARK  182  A    between atoms: _454  and  _455
REMARK  183  A    between atoms: _457  and  _459
REMARK  184  A    between atoms: _459  and  _460
REMARK  185  A    between atoms: _459  and  _462
REMARK  186  A    between atoms: _462  and  _463
REMARK  187  A    between atoms: _466  and  _468
REMARK  188  A    between atoms: _468  and  _469
REMARK  189  A    between atoms: _468  and  _471
REMARK  190  A    between atoms: _471  and  _472
REMARK  191  A    between atoms: _472  and  _473
REMARK  192  A    between atoms: _476  and  _478
REMARK  193  A    between atoms: _478  and  _479
REMARK  194  A    between atoms: _478  and  _481
REMARK  195  A    between atoms: _481  and  _482
REMARK  196  A    between atoms: _485  and  _487
REMARK  197  A    between atoms: _487  and  _488
REMARK  198  A    between atoms: _490  and  _492
REMARK  199  A    between atoms: _492  and  _493
REMARK  200  A    between atoms: _495  and  _497
REMARK  201  A    between atoms: _497  and  _498
REMARK  202  A    between atoms: _497  and  _500
REMARK  203  A    between atoms: _500  and  _501
REMARK  204  A    between atoms: _501  and  _502
REMARK  205  A    between atoms: _507  and  _509
REMARK  206  A    between atoms: _509  and  _510
REMARK  207  A    between atoms: _513  and  _515
REMARK  208  A    between atoms: _515  and  _516
REMARK  209  A    between atoms: _515  and  _518
REMARK  210  A    between atoms: _518  and  _519
REMARK  211  A    between atoms: _522  and  _524
REMARK  212  A    between atoms: _524  and  _525
REMARK  213  A    between atoms: _524  and  _527
REMARK  214  A    between atoms: _527  and  _528
REMARK  215  A    between atoms: _528  and  _529
REMARK  216  A    between atoms: _534  and  _536
REMARK  217  A    between atoms: _536  and  _537
REMARK  218  A    between atoms: _536  and  _539
REMARK  219  A    between atoms: _539  and  _540
REMARK  220  A    between atoms: _543  and  _545
REMARK  221  A    between atoms: _545  and  _546
REMARK  222  A    between atoms: _545  and  _548
REMARK  223  A    between atoms: _548  and  _549
REMARK  224  A    between atoms: _549  and  _550
REMARK  225  A    between atoms: _550  and  _551
REMARK                            x       y       z     vdW  Elec       q    Type
REMARK                         _______ _______ _______ _____ _____    ______ ____
ROOT
ATOM      1  CA  ASP A   2      19.088  35.692  47.908  0.00  0.00    +0.160 C 
ENDROOT
BRANCH   1   2
ATOM      2  C   ASP A   2      19.903  34.419  48.052  0.00  0.00    +0.244 C 
ATOM      3  O   ASP A   2      19.640  33.633  48.946  0.00  0.00    -0.273 OA
ATOM      4  N   PRO A   3      20.905  34.203  47.173  0.00  0.00    -0.273 N 
ATOM      5  CA  PRO A   3      21.668  32.938  47.269  0.00  0.00    +0.140 C 
ATOM      6  CB  PRO A   3      22.480  32.929  45.962  0.00  0.00    +0.030 C 
ATOM      7  CG  PRO A   3      22.682  34.406  45.671  0.00  0.00    +0.024 C 
ATOM      8  CD  PRO A   3      21.355  35.046  46.060  0.00  0.00    +0.094 C 
BRANCH   5   9
ATOM      9  C   PRO A   3      22.590  32.821  48.490  0.00  0.00    +0.227 C 
ATOM     10  O   PRO A   3      23.148  31.745  48.737  0.00  0.00    -0.286 OA
ENDBRANCH   5   9
ENDBRANCH   1   2
BRANCH   1  12
ATOM     11  C   ALA A   1      17.036  35.168  46.622  0.00  0.00    +0.238 C 
ATOM     12  N   ASP A   2      17.665  35.359  47.773  0.00  0.00    -0.297 N 
ATOM     13  H   ASP A   2      17.108  35.266  48.646  0.00  0.00    +0.150 HD
ATOM     14  O   ALA A   1      17.548  35.314  45.505  0.00  0.00    -0.274 OA
BRANCH  11  15
ATOM     15  CA  ALA A   1      15.542  34.804  46.797  0.00  0.00    +0.145 C 
ATOM     16  CB  ALA A   1      15.390  33.425  47.437  0.00  0.00    +0.028 C 
BRANCH  15  17
ATOM     17  N   ALA A   1      14.828  34.844  45.530  0.00  0.00    -0.238 NA
ATOM     18  H   ALA A   1      14.668  33.970  44.989  0.00  0.00    +0.142 HD
ENDBRANCH  15  17
ENDBRANCH  11  15
ENDBRANCH   1  12
BRANCH   1  19
ATOM     19  CB  ASP A   2      19.215  36.591  49.149  0.00  0.00    +0.143 C 
BRANCH  19  20
ATOM     20  CG  ASP A   2      20.605  37.126  49.374  0.00  0.00    +0.367 C 
ATOM     21  OD2 ASP A   2      20.730  38.189  50.023  0.00  0.00    -0.246 OA
ATOM     22  OD1 ASP A   2      21.563  36.522  48.923  0.00  0.00    -0.246 OA
ENDBRANCH  19  20
ENDBRANCH   1  19
TORSDOF 7
REMARK  Name = ../refined-set-2016/4r73/4r73_pocket.pdb
REMARK  225 active torsions:
REMARK  status: ('A' for Active; 'I' for Inactive)
REMARK    1  A    between atoms: _1  and  _3
REMARK    2  A    between atoms: _3  and  _4
REMARK    3  A    between atoms: _3  and  _6
REMARK    4  A    between atoms: _8  and  _10
REMARK    5  A    between atoms: _10  and  _11
REMARK    6  A    between atoms: _10  and  _13
REMARK    7  A    between atoms: _13  and  _14
REMARK    8  A    between atoms: _16  and  _18
REMARK    9  A    between atoms: _18  and  _19
REMARK   10  A    between atoms: _22  and  _24
REMARK   11  A    between atoms: _24  and  _25
REMARK   12  A    between atoms: _24  and  _27
REMARK   13  A    between atoms: _27  and  _28
REMARK   14  A    between atoms: _31  and  _33
REMARK   15  A    between atoms: _33  and  _34
REMARK   16  A    between atoms: _33  and  _36
REMARK   17  A    between atoms: _36  and  _37
REMARK   18  A    between atoms: _42  and  _44
REMARK   19  A    between atoms: _44  and  _45
REMARK   20  A    between atoms: _44  and  _47
REMARK   21  A    between atoms: _47  and  _48
REMARK   22  A    between atoms: _48  and  _49
REMARK   23  A    between atoms: _51  and  _53
REMARK   24  A    between atoms: _53  and  _54
REMARK   25  A    between atoms: _53  and  _56
REMARK   26  A    between atoms: _56  and  _57
REMARK   27  A    between atoms: _57  and  _58
REMARK   28  A    between atoms: _58  and  _59
REMARK   29  A    between atoms: _68  and  _70
REMARK   30  A    between atoms: _70  and  _71
REMARK   31  A    between atoms: _70  and  _73
REMARK   32  A    between atoms: _73  and  _74
REMARK   33  A    between atoms: _79  and  _81
REMARK   34  A    between atoms: _81  and  _82
REMARK   35  A    between atoms: _84  and  _86
REMARK   36  A    between atoms: _86  and  _87
REMARK   37  A    between atoms: _86  and  _89
REMARK   38  A    between atoms: _89  and  _90
REMARK   39  A    between atoms: _92  and  _94
REMARK   40  A    between atoms: _94  and  _95
REMARK   41  A    between atoms: _97  and  _99
REMARK   42  A    between atoms: _99  and  _100
REMARK   43  A    between atoms: _99  and  _102
REMARK   44  A    between atoms: _102  and  _103
REMARK   45  A    between atoms: _105  and  _107
REMARK   46  A    between atoms: _107  and  _108
REMARK   47  A    between atoms: _107  and  _110
REMARK   48  A    between atoms: _110  and  _111
REMARK   49  A    between atoms: _114  and  _116
REMARK   50  A    between atoms: _116  and  _117
REMARK   51  A    between atoms: _116  and  _119
REMARK   52  A    between atoms: _119  and  _120
REMARK   53  A    between atoms: _126  and  _128
REMARK   54  A    between atoms: _128  and  _129
REMARK   55  A    between atoms: _128  and  _131
REMARK   56  A    between atoms: _131  and  _132
REMARK   57  A    between atoms: _142  and  _144
REMARK   58  A    between atoms: _144  and  _145
REMARK   59  A    between atoms: _144  and  _147
REMARK   60  A    between atoms: _147  and  _148
REMARK   61  A    between atoms: _153  and  _154
REMARK   62  A    between atoms: _156  and  _158
REMARK   63  A    between atoms: _158  and  _159
REMARK   64  A    between atoms: _161  and  _163
REMARK   65  A    between atoms: _163  and  _164
REMARK   66  A    between atoms: _166  and  _168
REMARK   67  A    between atoms: _168  and  _169
REMARK   68  A    between atoms: _168  and  _171
REMARK   69  A    between atoms: _171  and  _172
REMARK   70  A    between atoms: _175  and  _177
REMARK   71  A    between atoms: _177  and  _178
REMARK   72  A    between atoms: _177  and  _180
REMARK   73  A    between atoms: _180  and  _181
REMARK   74  A    between atoms: _185  and  _186
REMARK   75  A    between atoms: _191  and  _193
REMARK   76  A    between atoms: _193  and  _194
REMARK   77  A    between atoms: _193  and  _196
REMARK   78  A    between atoms: _196  and  _197
REMARK   79  A    between atoms: _197  and  _198
REMARK   80  A    between atoms: _203  and  _205
REMARK   81  A    between atoms: _205  and  _206
REMARK   82  A    between atoms: _205  and  _208
REMARK   83  A    between atoms: _208  and  _209
REMARK   84  A    between atoms: _214  and  _215
REMARK   85  A    between atoms: _217  and  _219
REMARK   86  A    between atoms: _219  and  _220
REMARK   87  A    between atoms: _219  and  _222
REMARK   88  A    between atoms: _222  and  _223
REMARK   89  A    between atoms: _226  and  _228
REMARK   90  A    between atoms: _228  and  _229
REMARK   91  A    between atoms: _231  and  _233
REMARK   92  A    between atoms: _233  and  _234
REMARK   93  A    between atoms: _233  and  _236
REMARK   94  A    between atoms: _236  and  _237
REMARK   95  A    between atoms: _240  and  _242
REMARK   96  A    between atoms: _242  and  _243
REMARK   97  A    between atoms: _246  and  _248
REMARK   98  A    between atoms: _248  and  _249
REMARK   99  A    between atoms: _248  and  _251
REMARK  100  A    between atoms: _251  and  _252
REMARK  101  A    between atoms: _256  and  _257
REMARK  102  A    between atoms: _262  and  _264
REMARK  103  A    between atoms: _264  and  _265
REMARK  104  A    between atoms: _264  and  _267
REMARK  105  A    between atoms: _267  and  _268
REMARK  106  A    between atoms: _270  and  _272
REMARK  107  A    between atoms: _272  and  _273
REMARK  108  A    between atoms: _272  and  _275
REMARK  109  A    between atoms: _275  and  _276
REMARK  110  A    between atoms: _278  and  _280
REMARK  111  A    between atoms: _280  and  _281
REMARK  112  A    between atoms: _283  and  _285
REMARK  113  A    between atoms: _285  and  _286
REMARK  114  A    between atoms: _285  and  _288
REMARK  115  A    between atoms: _288  and  _289
REMARK  116  A    between atoms: _292  and  _294
REMARK  117  A    between atoms: _294  and  _295
REMARK  118  A    between atoms: _298  and  _300
REMARK  119  A    between atoms: _300  and  _301
REMARK  120  A    between atoms: _300  and  _303
REMARK  121  A    between atoms: _303  and  _304
REMARK  122  A    between atoms: _309  and  _310
REMARK  123  A    between atoms: _312  and  _314
REMARK  124  A    between atoms: _314  and  _315
REMARK  125  A    between atoms: _314  and  _317
REMARK  126  A    between atoms: _317  and  _318
REMARK  127  A    between atoms: _321  and  _323
REMARK  128  A    between atoms: _323  and  _324
REMARK  129  A    between atoms: _323  and  _326
REMARK  130  A    between atoms: _326  and  _327
REMARK  131  A    between atoms: _330  and  _332
REMARK  132  A    between atoms: _332  and  _333
REMARK  133  A    between atoms: _332  and  _335
REMARK  134  A    between atoms: _335  and  _336
REMARK  135  A    between atoms: _336  and  _337
REMARK  136  A    between atoms: _337  and  _338
REMARK  137  A    between atoms: _338  and  _339
REMARK  138  A    between atoms: _343  and  _345
REMARK  139  A    between atoms: _345  and  _346
REMARK  140  A    between atoms: _345  and  _348
REMARK  141  A    between atoms: _348  and  _349
REMARK  142  A    between atoms: _351  and  _353
REMARK  143  A    between atoms: _353  and  _354
REMARK  144  A    between atoms: _356  and  _358
REMARK  145  A    between atoms: _358  and  _359
REMARK  146  A    between atoms: _358  and  _361
REMARK  147  A    between atoms: _361  and  _362
REMARK  148  A    between atoms: _365  and  _367
REMARK  149  A    between atoms: _367  and  _368
REMARK  150  A    between atoms: _367  and  _370
REMARK  151  A    between atoms: _370  and  _371
REMARK  152  A    between atoms: _374  and  _376
REMARK  153  A    between atoms: _376  and  _377
REMARK  154  A    between atoms: _380  and  _382
REMARK  155  A    between atoms: _382  and  _383
REMARK  156  A    between atoms: _382  and  _385
REMARK  157  A    between atoms: _385  and  _386
REMARK  158  A    between atoms: _386  and  _387
REMARK  159  A    between atoms: _387  and  _388
REMARK  160  A    between atoms: _397  and  _399
REMARK  161  A    between atoms: _399  and  _400
REMARK  162  A    between atoms: _402  and  _404
REMARK  163  A    between atoms: _404  and  _405
REMARK  164  A    between atoms: _404  and  _407
REMARK  165  A    between atoms: _407  and  _408
REMARK  166  A    between atoms: _414  and  _416
REMARK  167  A    between atoms: _416  and  _417
REMARK  168  A    between atoms: _416  and  _419
REMARK  169  A    between atoms: _419  and  _420
REMARK  170  A    between atoms: _423  and  _425
REMARK  171  A    between atoms: _425  and  _426
REMARK  172  A    between atoms: _425  and  _428
REMARK  173  A    between atoms: _428  and  _429
REMARK  174  A    between atoms: _434  and  _436
REMARK  175  A    between atoms: _436  and  _437
REMARK  176  A    between atoms: _436  and  _439
REMARK  177  A    between atoms: _439  and  _440
REMARK  178  A    between atoms: _443  and  _445
REMARK  179  A    between atoms: _445  and  _446
REMARK  180  A    between atoms: _445  and  _448
REMARK  181  A    between atoms: _448  and  _449
REMARK  182  A    between atoms: _454  and  _455
REMARK  183  A    between atoms: _457  and  _459
REMARK  184  A    between atoms: _459  and  _460
REMARK  185  A    between atoms: _459  and  _462
REMARK  186  A    between atoms: _462  and  _463
REMARK  187  A    between atoms: _466  and  _468
REMARK  188  A    between atoms: _468  and  _469
REMARK  189  A    between atoms: _468  and  _471
REMARK  190  A    between atoms: _471  and  _472
REMARK  191  A    between atoms: _472  and  _473
REMARK  192  A    between atoms: _476  and  _478
REMARK  193  A    between atoms: _478  and  _479
REMARK  194  A    between atoms: _478  and  _481
REMARK  195  A    between atoms: _481  and  _482
REMARK  196  A    between atoms: _485  and  _487
REMARK  197  A    between atoms: _487  and  _488
REMARK  198  A    between atoms: _490  and  _492
REMARK  199  A    between atoms: _492  and  _493
REMARK  200  A    between atoms: _495  and  _497
REMARK  201  A    between atoms: _497  and  _498
REMARK  202  A    between atoms: _497  and  _500
REMARK  203  A    between atoms: _500  and  _501
REMARK  204  A    between atoms: _501  and  _502
REMARK  205  A    between atoms: _507  and  _509
REMARK  206  A    between atoms: _509  and  _510
REMARK  207  A    between atoms: _513  and  _515
REMARK  208  A    between atoms: _515  and  _516
REMARK  209  A    between atoms: _515  and  _518
REMARK  210  A    between atoms: _518  and  _519
REMARK  211  A    between atoms: _522  and  _524
REMARK  212  A    between atoms: _524  and  _525
REMARK  213  A    between atoms: _524  and  _527
REMARK  214  A    between atoms: _527  and  _528
REMARK  215  A    between atoms: _528  and  _529
REMARK  216  A    between atoms: _534  and  _536
REMARK  217  A    between atoms: _536  and  _537
REMARK  218  A    between atoms: _536  and  _539
REMARK  219  A    between atoms: _539  and  _540
REMARK  220  A    between atoms: _543  and  _545
REMARK  221  A    between atoms: _545  and  _546
REMARK  222  A    between atoms: _545  and  _548
REMARK  223  A    between atoms: _548  and  _549
REMARK  224  A    between atoms: _549  and  _550
REMARK  225  A    between atoms: _550  and  _551
REMARK                            x       y       z     vdW  Elec       q    Type
REMARK                         _______ _______ _______ _____ _____    ______ ____
ROOT
ATOM      1  C   THR A   4      17.368  29.124  44.261  0.00  0.00    +0.243 C 
ATOM      2  N   ALA A   5      17.829  30.171  44.953  0.00  0.00    -0.297 N 
ATOM      3  H   ALA A   5      17.718  30.201  45.987  0.00  0.00    +0.150 HD
ATOM      4  O   THR A   4      17.505  28.991  43.037  0.00  0.00    -0.273 OA
ENDROOT
BRANCH   2   5
ATOM      5  CA  ALA A   5      18.485  31.268  44.260  0.00  0.00    +0.149 C 
ATOM      6  CB  ALA A   5      18.783  32.426  45.235  0.00  0.00    +0.031 C 
BRANCH   5   7
ATOM      7  C   ALA A   5      19.768  30.755  43.605  0.00  0.00    +0.241 C 
ATOM      8  N   TYR A   6      20.473  29.841  44.273  0.00  0.00    -0.297 N 
ATOM      9  H   TYR A   6      20.160  29.498  45.204  0.00  0.00    +0.150 HD
ATOM     10  O   ALA A   5      20.112  31.164  42.493  0.00  0.00    -0.273 OA
BRANCH   8  11
ATOM     11  CA  TYR A   6      21.694  29.338  43.660  0.00  0.00    +0.153 C 
BRANCH  11  12
ATOM     12  C   TYR A   6      21.376  28.436  42.454  0.00  0.00    +0.241 C 
ATOM     13  N   THR A   7      20.307  27.637  42.559  0.00  0.00    -0.296 N 
ATOM     14  H   THR A   7      19.770  27.610  43.449  0.00  0.00    +0.150 HD
ATOM     15  O   TYR A   6      22.089  28.451  41.442  0.00  0.00    -0.273 OA
BRANCH  13  16
ATOM     16  CA  THR A   7      19.891  26.810  41.446  0.00  0.00    +0.164 C 
BRANCH  16  17
ATOM     17  C   THR A   7      19.610  27.700  40.237  0.00  0.00    +0.229 C 
ATOM     18  O   THR A   7      19.946  27.316  39.119  0.00  0.00    -0.286 OA
ENDBRANCH  16  17
BRANCH  16  19
ATOM     19  CB  THR A   7      18.640  25.982  41.815  0.00  0.00    +0.136 C 
ATOM     20  CG2 THR A   7      18.147  25.168  40.603  0.00  0.00    +0.034 C 
BRANCH  19  21
ATOM     21  OG1 THR A   7      18.963  25.116  42.921  0.00  0.00    -0.382 OA
ATOM     22  HG1 THR A   7      19.243  25.664  43.697  0.00  0.00    +0.210 HD
ENDBRANCH  19  21
ENDBRANCH  16  19
ENDBRANCH  13  16
ENDBRANCH  11  12
BRANCH  11  23
ATOM     23  CB  TYR A   6      22.566  28.592  44.679  0.00  0.00    +0.055 C 
BRANCH  23  24
ATOM     24  CG  TYR A   6      23.832  28.051  44.027  0.00  0.00    -0.020 A 
ATOM     25  CD2 TYR A   6      23.971  26.698  43.750  0.00  0.00    -0.001 A 
ATOM     26  CE2 TYR A   6      25.102  26.189  43.143  0.00  0.00    +0.036 A 
ATOM     27  CZ  TYR A   6      26.127  27.062  42.808  0.00  0.00    +0.134 A 
ATOM     28  CE1 TYR A   6      26.009  28.412  43.030  0.00  0.00    +0.036 A 
ATOM     29  CD1 TYR A   6      24.867  28.912  43.659  0.00  0.00    -0.001 A 
BRANCH  27  30
ATOM     30  OH  TYR A   6      27.254  26.564  42.195  0.00  0.00    -0.506 OA
ATOM     31  HH  TYR A   6      27.681  25.894  42.786  0.00  0.00    +0.292 HD
ENDBRANCH  27  30
ENDBRANCH  23  24
ENDBRANCH  11  23
ENDBRANCH   8  11
ENDBRANCH   5   7
ENDBRANCH   2   5
BRANCH   1  32
ATOM     32  CA  THR A   4      16.656  28.062  45.094  0.00  0.00    +0.176 C 
BRANCH  32  34
ATOM     33  C   GLY A   3      18.681  27.363  46.273  0.00  0.00    +0.243 C 
ATOM     34  N   THR A   4      17.395  27.741  46.307  0.00  0.00    -0.295 N 
ATOM     35  H   THR A   4      16.912  27.807  47.226  0.00  0.00    +0.150 HD
ATOM     36  O   GLY A   3      19.293  27.220  45.211  0.00  0.00    -0.273 OA
BRANCH  33  37
ATOM     37  CA  GLY A   3      19.331  27.089  47.618  0.00  0.00    +0.176 C 
BRANCH  37  39
ATOM     38  C   SER A   2      19.244  29.345  48.516  0.00  0.00    +0.243 C 
ATOM     39  N   GLY A   3      18.915  28.052  48.613  0.00  0.00    -0.295 N 
ATOM     40  H   GLY A   3      18.347  27.732  49.423  0.00  0.00    +0.150 HD
ATOM     41  O   SER A   2      19.991  29.788  47.620  0.00  0.00    -0.273 OA
BRANCH  38  42
ATOM     42  CA  SER A   2      18.592  30.250  49.562  0.00  0.00    +0.178 C 
BRANCH  42  45
ATOM     43  C   SER A   1      19.941  30.819  51.521  0.00  0.00    +0.241 C 
ATOM     44  O   SER A   1      19.821  29.700  52.041  0.00  0.00    -0.274 OA
ATOM     45  N   SER A   2      19.497  31.130  50.308  0.00  0.00    -0.295 N 
ATOM     46  H   SER A   2      19.801  32.025  49.874  0.00  0.00    +0.150 HD
BRANCH  43  47
ATOM     47  CA  SER A   1      20.634  31.941  52.264  0.00  0.00    +0.174 C 
BRANCH  47  48
ATOM     48  N   SER A   1      21.428  32.768  51.370  0.00  0.00    -0.236 NA
ATOM     49  H   SER A   1      20.951  33.316  50.626  0.00  0.00    +0.142 HD
ENDBRANCH  47  48
BRANCH  47  50
ATOM     50  CB  SER A   1      19.577  32.800  52.989  0.00  0.00    +0.163 C 
BRANCH  50  51
ATOM     51  OG  SER A   1      18.934  33.680  52.077  0.00  0.00    -0.380 OA
ATOM     52  H   SER A   1      18.487  33.151  51.369  0.00  0.00    +0.211 HD
ENDBRANCH  50  51
ENDBRANCH  47  50
ENDBRANCH  43  47
ENDBRANCH  42  45
BRANCH  42  53
ATOM     53  CB  SER A   2      17.540  31.126  48.877  0.00  0.00    +0.166 C 
BRANCH  53  54
ATOM     54  OG  SER A   2      16.832  30.390  47.871  0.00  0.00    -0.380 OA
ATOM     55  H   SER A   2      16.377  29.616  48.289  0.00  0.00    +0.211 HD
ENDBRANCH  53  54
ENDBRANCH  42  53
ENDBRANCH  38  42
ENDBRANCH  37  39
ENDBRANCH  33  37
ENDBRANCH  32  34
BRANCH  32  56
ATOM     56  CB  THR A   4      15.218  28.551  45.473  0.00  0.00    +0.137 C 
ATOM     57  CG2 THR A   4      14.363  28.747  44.215  0.00  0.00    +0.034 C 
BRANCH  56  58
ATOM     58  OG1 THR A   4      14.583  27.627  46.367  0.00  0.00    -0.382 OA
ATOM     59  HG1 THR A   4      13.677  27.957  46.592  0.00  0.00    +0.210 HD
ENDBRANCH  56  58
ENDBRANCH  32  56
ENDBRANCH   1  32
TORSDOF 25
REMARK  Name = ../refined-set-2016/4r73/4r73_pocket.pdb
REMARK  225 active torsions:
REMARK  status: ('A' for Active; 'I' for Inactive)
REMARK    1  A    between atoms: _1  and  _3
REMARK    2  A    between atoms: _3  and  _4
REMARK    3  A    between atoms: _3  and  _6
REMARK    4  A    between atoms: _8  and  _10
REMARK    5  A    between atoms: _10  and  _11
REMARK    6  A    between atoms: _10  and  _13
REMARK    7  A    between atoms: _13  and  _14
REMARK    8  A    between atoms: _16  and  _18
REMARK    9  A    between atoms: _18  and  _19
REMARK   10  A    between atoms: _22  and  _24
REMARK   11  A    between atoms: _24  and  _25
REMARK   12  A    between atoms: _24  and  _27
REMARK   13  A    between atoms: _27  and  _28
REMARK   14  A    between atoms: _31  and  _33
REMARK   15  A    between atoms: _33  and  _34
REMARK   16  A    between atoms: _33  and  _36
REMARK   17  A    between atoms: _36  and  _37
REMARK   18  A    between atoms: _42  and  _44
REMARK   19  A    between atoms: _44  and  _45
REMARK   20  A    between atoms: _44  and  _47
REMARK   21  A    between atoms: _47  and  _48
REMARK   22  A    between atoms: _48  and  _49
REMARK   23  A    between atoms: _51  and  _53
REMARK   24  A    between atoms: _53  and  _54
REMARK   25  A    between atoms: _53  and  _56
REMARK   26  A    between atoms: _56  and  _57
REMARK   27  A    between atoms: _57  and  _58
REMARK   28  A    between atoms: _58  and  _59
REMARK   29  A    between atoms: _68  and  _70
REMARK   30  A    between atoms: _70  and  _71
REMARK   31  A    between atoms: _70  and  _73
REMARK   32  A    between atoms: _73  and  _74
REMARK   33  A    between atoms: _79  and  _81
REMARK   34  A    between atoms: _81  and  _82
REMARK   35  A    between atoms: _84  and  _86
REMARK   36  A    between atoms: _86  and  _87
REMARK   37  A    between atoms: _86  and  _89
REMARK   38  A    between atoms: _89  and  _90
REMARK   39  A    between atoms: _92  and  _94
REMARK   40  A    between atoms: _94  and  _95
REMARK   41  A    between atoms: _97  and  _99
REMARK   42  A    between atoms: _99  and  _100
REMARK   43  A    between atoms: _99  and  _102
REMARK   44  A    between atoms: _102  and  _103
REMARK   45  A    between atoms: _105  and  _107
REMARK   46  A    between atoms: _107  and  _108
REMARK   47  A    between atoms: _107  and  _110
REMARK   48  A    between atoms: _110  and  _111
REMARK   49  A    between atoms: _114  and  _116
REMARK   50  A    between atoms: _116  and  _117
REMARK   51  A    between atoms: _116  and  _119
REMARK   52  A    between atoms: _119  and  _120
REMARK   53  A    between atoms: _126  and  _128
REMARK   54  A    between atoms: _128  and  _129
REMARK   55  A    between atoms: _128  and  _131
REMARK   56  A    between atoms: _131  and  _132
REMARK   57  A    between atoms: _142  and  _144
REMARK   58  A    between atoms: _144  and  _145
REMARK   59  A    between atoms: _144  and  _147
REMARK   60  A    between atoms: _147  and  _148
REMARK   61  A    between atoms: _153  and  _154
REMARK   62  A    between atoms: _156  and  _158
REMARK   63  A    between atoms: _158  and  _159
REMARK   64  A    between atoms: _161  and  _163
REMARK   65  A    between atoms: _163  and  _164
REMARK   66  A    between atoms: _166  and  _168
REMARK   67  A    between atoms: _168  and  _169
REMARK   68  A    between atoms: _168  and  _171
REMARK   69  A    between atoms: _171  and  _172
REMARK   70  A    between atoms: _175  and  _177
REMARK   71  A    between atoms: _177  and  _178
REMARK   72  A    between atoms: _177  and  _180
REMARK   73  A    between atoms: _180  and  _181
REMARK   74  A    between atoms: _185  and  _186
REMARK   75  A    between atoms: _191  and  _193
REMARK   76  A    between atoms: _193  and  _194
REMARK   77  A    between atoms: _193  and  _196
REMARK   78  A    between atoms: _196  and  _197
REMARK   79  A    between atoms: _197  and  _198
REMARK   80  A    between atoms: _203  and  _205
REMARK   81  A    between atoms: _205  and  _206
REMARK   82  A    between atoms: _205  and  _208
REMARK   83  A    between atoms: _208  and  _209
REMARK   84  A    between atoms: _214  and  _215
REMARK   85  A    between atoms: _217  and  _219
REMARK   86  A    between atoms: _219  and  _220
REMARK   87  A    between atoms: _219  and  _222
REMARK   88  A    between atoms: _222  and  _223
REMARK   89  A    between atoms: _226  and  _228
REMARK   90  A    between atoms: _228  and  _229
REMARK   91  A    between atoms: _231  and  _233
REMARK   92  A    between atoms: _233  and  _234
REMARK   93  A    between atoms: _233  and  _236
REMARK   94  A    between atoms: _236  and  _237
REMARK   95  A    between atoms: _240  and  _242
REMARK   96  A    between atoms: _242  and  _243
REMARK   97  A    between atoms: _246  and  _248
REMARK   98  A    between atoms: _248  and  _249
REMARK   99  A    between atoms: _248  and  _251
REMARK  100  A    between atoms: _251  and  _252
REMARK  101  A    between atoms: _256  and  _257
REMARK  102  A    between atoms: _262  and  _264
REMARK  103  A    between atoms: _264  and  _265
REMARK  104  A    between atoms: _264  and  _267
REMARK  105  A    between atoms: _267  and  _268
REMARK  106  A    between atoms: _270  and  _272
REMARK  107  A    between atoms: _272  and  _273
REMARK  108  A    between atoms: _272  and  _275
REMARK  109  A    between atoms: _275  and  _276
REMARK  110  A    between atoms: _278  and  _280
REMARK  111  A    between atoms: _280  and  _281
REMARK  112  A    between atoms: _283  and  _285
REMARK  113  A    between atoms: _285  and  _286
REMARK  114  A    between atoms: _285  and  _288
REMARK  115  A    between atoms: _288  and  _289
REMARK  116  A    between atoms: _292  and  _294
REMARK  117  A    between atoms: _294  and  _295
REMARK  118  A    between atoms: _298  and  _300
REMARK  119  A    between atoms: _300  and  _301
REMARK  120  A    between atoms: _300  and  _303
REMARK  121  A    between atoms: _303  and  _304
REMARK  122  A    between atoms: _309  and  _310
REMARK  123  A    between atoms: _312  and  _314
REMARK  124  A    between atoms: _314  and  _315
REMARK  125  A    between atoms: _314  and  _317
REMARK  126  A    between atoms: _317  and  _318
REMARK  127  A    between atoms: _321  and  _323
REMARK  128  A    between atoms: _323  and  _324
REMARK  129  A    between atoms: _323  and  _326
REMARK  130  A    between atoms: _326  and  _327
REMARK  131  A    between atoms: _330  and  _332
REMARK  132  A    between atoms: _332  and  _333
REMARK  133  A    between atoms: _332  and  _335
REMARK  134  A    between atoms: _335  and  _336
REMARK  135  A    between atoms: _336  and  _337
REMARK  136  A    between atoms: _337  and  _338
REMARK  137  A    between atoms: _338  and  _339
REMARK  138  A    between atoms: _343  and  _345
REMARK  139  A    between atoms: _345  and  _346
REMARK  140  A    between atoms: _345  and  _348
REMARK  141  A    between atoms: _348  and  _349
REMARK  142  A    between atoms: _351  and  _353
REMARK  143  A    between atoms: _353  and  _354
REMARK  144  A    between atoms: _356  and  _358
REMARK  145  A    between atoms: _358  and  _359
REMARK  146  A    between atoms: _358  and  _361
REMARK  147  A    between atoms: _361  and  _362
REMARK  148  A    between atoms: _365  and  _367
REMARK  149  A    between atoms: _367  and  _368
REMARK  150  A    between atoms: _367  and  _370
REMARK  151  A    between atoms: _370  and  _371
REMARK  152  A    between atoms: _374  and  _376
REMARK  153  A    between atoms: _376  and  _377
REMARK  154  A    between atoms: _380  and  _382
REMARK  155  A    between atoms: _382  and  _383
REMARK  156  A    between atoms: _382  and  _385
REMARK  157  A    between atoms: _385  and  _386
REMARK  158  A    between atoms: _386  and  _387
REMARK  159  A    between atoms: _387  and  _388
REMARK  160  A    between atoms: _397  and  _399
REMARK  161  A    between atoms: _399  and  _400
REMARK  162  A    between atoms: _402  and  _404
REMARK  163  A    between atoms: _404  and  _405
REMARK  164  A    between atoms: _404  and  _407
REMARK  165  A    between atoms: _407  and  _408
REMARK  166  A    between atoms: _414  and  _416
REMARK  167  A    between atoms: _416  and  _417
REMARK  168  A    between atoms: _416  and  _419
REMARK  169  A    between atoms: _419  and  _420
REMARK  170  A    between atoms: _423  and  _425
REMARK  171  A    between atoms: _425  and  _426
REMARK  172  A    between atoms: _425  and  _428
REMARK  173  A    between atoms: _428  and  _429
REMARK  174  A    between atoms: _434  and  _436
REMARK  175  A    between atoms: _436  and  _437
REMARK  176  A    between atoms: _436  and  _439
REMARK  177  A    between atoms: _439  and  _440
REMARK  178  A    between atoms: _443  and  _445
REMARK  179  A    between atoms: _445  and  _446
REMARK  180  A    between atoms: _445  and  _448
REMARK  181  A    between atoms: _448  and  _449
REMARK  182  A    between atoms: _454  and  _455
REMARK  183  A    between atoms: _457  and  _459
REMARK  184  A    between atoms: _459  and  _460
REMARK  185  A    between atoms: _459  and  _462
REMARK  186  A    between atoms: _462  and  _463
REMARK  187  A    between atoms: _466  and  _468
REMARK  188  A    between atoms: _468  and  _469
REMARK  189  A    between atoms: _468  and  _471
REMARK  190  A    between atoms: _471  and  _472
REMARK  191  A    between atoms: _472  and  _473
REMARK  192  A    between atoms: _476  and  _478
REMARK  193  A    between atoms: _478  and  _479
REMARK  194  A    between atoms: _478  and  _481
REMARK  195  A    between atoms: _481  and  _482
REMARK  196  A    between atoms: _485  and  _487
REMARK  197  A    between atoms: _487  and  _488
REMARK  198  A    between atoms: _490  and  _492
REMARK  199  A    between atoms: _492  and  _493
REMARK  200  A    between atoms: _495  and  _497
REMARK  201  A    between atoms: _497  and  _498
REMARK  202  A    between atoms: _497  and  _500
REMARK  203  A    between atoms: _500  and  _501
REMARK  204  A    between atoms: _501  and  _502
REMARK  205  A    between atoms: _507  and  _509
REMARK  206  A    between atoms: _509  and  _510
REMARK  207  A    between atoms: _513  and  _515
REMARK  208  A    between atoms: _515  and  _516
REMARK  209  A    between atoms: _515  and  _518
REMARK  210  A    between atoms: _518  and  _519
REMARK  211  A    between atoms: _522  and  _524
REMARK  212  A    between atoms: _524  and  _525
REMARK  213  A    between atoms: _524  and  _527
REMARK  214  A    between atoms: _527  and  _528
REMARK  215  A    between atoms: _528  and  _529
REMARK  216  A    between atoms: _534  and  _536
REMARK  217  A    between atoms: _536  and  _537
REMARK  218  A    between atoms: _536  and  _539
REMARK  219  A    between atoms: _539  and  _540
REMARK  220  A    between atoms: _543  and  _545
REMARK  221  A    between atoms: _545  and  _546
REMARK  222  A    between atoms: _545  and  _548
REMARK  223  A    between atoms: _548  and  _549
REMARK  224  A    between atoms: _549  and  _550
REMARK  225  A    between atoms: _550  and  _551
REMARK                            x       y       z     vdW  Elec       q    Type
REMARK                         _______ _______ _______ _____ _____    ______ ____
ROOT
ATOM      1  CA  SER A   3      13.651  32.054  51.701  0.00  0.00    +0.178 C 
ENDROOT
BRANCH   1   3
ATOM      2  C   LYS A   2      15.389  33.742  52.060  0.00  0.00    +0.241 C 
ATOM      3  N   SER A   3      14.102  33.410  52.040  0.00  0.00    -0.295 N 
ATOM      4  H   SER A   3      13.392  34.134  52.272  0.00  0.00    +0.150 HD
ATOM      5  O   LYS A   2      16.307  32.990  51.752  0.00  0.00    -0.273 OA
BRANCH   2   6
ATOM      6  CA  LYS A   2      15.688  35.166  52.486  0.00  0.00    +0.149 C 
BRANCH   6   8
ATOM      7  C   THR A   1      14.956  36.346  50.529  0.00  0.00    +0.241 C 
ATOM      8  N   LYS A   2      14.779  36.069  51.812  0.00  0.00    -0.297 N 
ATOM      9  H   LYS A   2      13.989  36.499  52.334  0.00  0.00    +0.150 HD
ATOM     10  O   THR A   1      15.857  35.833  49.857  0.00  0.00    -0.274 OA
BRANCH   7  11
ATOM     11  CA  THR A   1      13.973  37.303  49.890  0.00  0.00    +0.172 C 
BRANCH  11  12
ATOM     12  N   THR A   1      14.518  37.884  48.684  0.00  0.00    -0.236 NA
ATOM     13  H   THR A   1      14.400  37.392  47.775  0.00  0.00    +0.142 HD
ENDBRANCH  11  12
BRANCH  11  14
ATOM     14  CB  THR A   1      12.642  36.552  49.604  0.00  0.00    +0.135 C 
ATOM     15  CG2 THR A   1      11.634  37.510  48.976  0.00  0.00    +0.034 C 
BRANCH  14  16
ATOM     16  OG1 THR A   1      12.865  35.478  48.668  0.00  0.00    -0.383 OA
ATOM     17  HG1 THR A   1      13.521  34.841  49.048  0.00  0.00    +0.210 HD
ENDBRANCH  14  16
ENDBRANCH  11  14
ENDBRANCH   7  11
ENDBRANCH   6   8
BRANCH   6  18
ATOM     18  CB  LYS A   2      15.576  35.265  54.000  0.00  0.00    +0.029 C 
BRANCH  18  19
ATOM     19  CG  LYS A   2      16.481  34.283  54.716  0.00  0.00    +0.000 C 
BRANCH  19  20
ATOM     20  CD  LYS A   2      16.562  34.626  56.193  0.00  0.00    -0.024 C 
BRANCH  20  21
ATOM     21  CE  LYS A   2      17.549  33.721  56.902  0.00  0.00    -0.086 C 
BRANCH  21  22
ATOM     22  NZ  LYS A   2      16.940  32.370  57.097  0.00  0.00    +0.380 N 
ATOM     23  HZ1 LYS A   2      16.078  32.459  57.672  0.00  0.00    -0.089 HD
ATOM     24  HZ2 LYS A   2      17.620  31.752  57.584  0.00  0.00    -0.089 HD
ATOM     25  HZ3 LYS A   2      16.700  31.962  56.171  0.00  0.00    -0.089 HD
ENDBRANCH  21  22
ENDBRANCH  20  21
ENDBRANCH  19  20
ENDBRANCH  18  19
ENDBRANCH   6  18
ENDBRANCH   2   6
ENDBRANCH   1   3
BRANCH   1  26
ATOM     26  C   SER A   3      13.294  31.901  50.237  0.00  0.00    +0.243 C 
ATOM     27  N   GLY A   4      13.616  30.739  49.679  0.00  0.00    -0.295 N 
ATOM     28  H   GLY A   4      14.106  30.021  50.251  0.00  0.00    +0.150 HD
ATOM     29  O   SER A   3      12.705  32.805  49.644  0.00  0.00    -0.273 OA
BRANCH  27  30
ATOM     30  CA  GLY A   4      13.302  30.445  48.291  0.00  0.00    +0.176 C 
BRANCH  30  31
ATOM     31  C   GLY A   4      11.828  30.591  47.948  0.00  0.00    +0.243 C 
ATOM     32  N   ILE A   5      10.981  30.188  48.887  0.00  0.00    -0.297 N 
ATOM     33  H   ILE A   5      11.350  29.931  49.825  0.00  0.00    +0.150 HD
ATOM     34  O   GLY A   4      11.482  31.010  46.846  0.00  0.00    -0.273 OA
BRANCH  32  35
ATOM     35  CA  ILE A   5       9.527  30.094  48.637  0.00  0.00    +0.149 C 
BRANCH  35  36
ATOM     36  C   ILE A   5       8.812  31.439  48.770  0.00  0.00    +0.241 C 
ATOM     37  N   THR A   6       9.470  32.417  49.370  0.00  0.00    -0.296 N 
ATOM     38  H   THR A   6      10.462  32.298  49.658  0.00  0.00    +0.150 HD
ATOM     39  O   ILE A   5       7.657  31.592  48.356  0.00  0.00    -0.273 OA
BRANCH  37  40
ATOM     40  CA  THR A   6       8.759  33.671  49.615  0.00  0.00    +0.164 C 
BRANCH  40  41
ATOM     41  C   THR A   6       8.211  34.389  48.358  0.00  0.00    +0.229 C 
ATOM     42  O   THR A   6       7.094  34.903  48.406  0.00  0.00    -0.286 OA
ENDBRANCH  40  41
BRANCH  40  43
ATOM     43  CB  THR A   6       9.640  34.600  50.457  0.00  0.00    +0.136 C 
ATOM     44  CG2 THR A   6       8.930  35.932  50.702  0.00  0.00    +0.034 C 
BRANCH  43  45
ATOM     45  OG1 THR A   6       9.830  33.963  51.730  0.00  0.00    -0.382 OA
ATOM     46  HG1 THR A   6       8.951  33.827  52.164  0.00  0.00    +0.210 HD
ENDBRANCH  43  45
ENDBRANCH  40  43
ENDBRANCH  37  40
ENDBRANCH  35  36
BRANCH  35  47
ATOM     47  CB  ILE A   5       8.906  29.083  49.583  0.00  0.00    +0.027 C 
ATOM     48  CG2 ILE A   5       8.906  29.622  51.012  0.00  0.00    +0.002 C 
BRANCH  47  49
ATOM     49  CG1 ILE A   5       7.464  28.740  49.155  0.00  0.00    +0.002 C 
ATOM     50  CD1 ILE A   5       6.902  27.567  49.889  0.00  0.00    +0.000 C 
ENDBRANCH  47  49
ENDBRANCH  35  47
ENDBRANCH  32  35
ENDBRANCH  30  31
ENDBRANCH  27  30
ENDBRANCH   1  26
BRANCH   1  51
ATOM     51  CB  SER A   3      12.422  31.663  52.545  0.00  0.00    +0.166 C 
BRANCH  51  52
ATOM     52  OG  SER A   3      12.717  31.693  53.942  0.00  0.00    -0.380 OA
ATOM     53  H   SER A   3      11.909  31.438  54.454  0.00  0.00    +0.211 HD
ENDBRANCH  51  52
ENDBRANCH   1  51
TORSDOF 25
REMARK  Name = ../refined-set-2016/4r73/4r73_pocket.pdb
REMARK  225 active torsions:
REMARK  status: ('A' for Active; 'I' for Inactive)
REMARK    1  A    between atoms: _1  and  _3
REMARK    2  A    between atoms: _3  and  _4
REMARK    3  A    between atoms: _3  and  _6
REMARK    4  A    between atoms: _8  and  _10
REMARK    5  A    between atoms: _10  and  _11
REMARK    6  A    between atoms: _10  and  _13
REMARK    7  A    between atoms: _13  and  _14
REMARK    8  A    between atoms: _16  and  _18
REMARK    9  A    between atoms: _18  and  _19
REMARK   10  A    between atoms: _22  and  _24
REMARK   11  A    between atoms: _24  and  _25
REMARK   12  A    between atoms: _24  and  _27
REMARK   13  A    between atoms: _27  and  _28
REMARK   14  A    between atoms: _31  and  _33
REMARK   15  A    between atoms: _33  and  _34
REMARK   16  A    between atoms: _33  and  _36
REMARK   17  A    between atoms: _36  and  _37
REMARK   18  A    between atoms: _42  and  _44
REMARK   19  A    between atoms: _44  and  _45
REMARK   20  A    between atoms: _44  and  _47
REMARK   21  A    between atoms: _47  and  _48
REMARK   22  A    between atoms: _48  and  _49
REMARK   23  A    between atoms: _51  and  _53
REMARK   24  A    between atoms: _53  and  _54
REMARK   25  A    between atoms: _53  and  _56
REMARK   26  A    between atoms: _56  and  _57
REMARK   27  A    between atoms: _57  and  _58
REMARK   28  A    between atoms: _58  and  _59
REMARK   29  A    between atoms: _68  and  _70
REMARK   30  A    between atoms: _70  and  _71
REMARK   31  A    between atoms: _70  and  _73
REMARK   32  A    between atoms: _73  and  _74
REMARK   33  A    between atoms: _79  and  _81
REMARK   34  A    between atoms: _81  and  _82
REMARK   35  A    between atoms: _84  and  _86
REMARK   36  A    between atoms: _86  and  _87
REMARK   37  A    between atoms: _86  and  _89
REMARK   38  A    between atoms: _89  and  _90
REMARK   39  A    between atoms: _92  and  _94
REMARK   40  A    between atoms: _94  and  _95
REMARK   41  A    between atoms: _97  and  _99
REMARK   42  A    between atoms: _99  and  _100
REMARK   43  A    between atoms: _99  and  _102
REMARK   44  A    between atoms: _102  and  _103
REMARK   45  A    between atoms: _105  and  _107
REMARK   46  A    between atoms: _107  and  _108
REMARK   47  A    between atoms: _107  and  _110
REMARK   48  A    between atoms: _110  and  _111
REMARK   49  A    between atoms: _114  and  _116
REMARK   50  A    between atoms: _116  and  _117
REMARK   51  A    between atoms: _116  and  _119
REMARK   52  A    between atoms: _119  and  _120
REMARK   53  A    between atoms: _126  and  _128
REMARK   54  A    between atoms: _128  and  _129
REMARK   55  A    between atoms: _128  and  _131
REMARK   56  A    between atoms: _131  and  _132
REMARK   57  A    between atoms: _142  and  _144
REMARK   58  A    between atoms: _144  and  _145
REMARK   59  A    between atoms: _144  and  _147
REMARK   60  A    between atoms: _147  and  _148
REMARK   61  A    between atoms: _153  and  _154
REMARK   62  A    between atoms: _156  and  _158
REMARK   63  A    between atoms: _158  and  _159
REMARK   64  A    between atoms: _161  and  _163
REMARK   65  A    between atoms: _163  and  _164
REMARK   66  A    between atoms: _166  and  _168
REMARK   67  A    between atoms: _168  and  _169
REMARK   68  A    between atoms: _168  and  _171
REMARK   69  A    between atoms: _171  and  _172
REMARK   70  A    between atoms: _175  and  _177
REMARK   71  A    between atoms: _177  and  _178
REMARK   72  A    between atoms: _177  and  _180
REMARK   73  A    between atoms: _180  and  _181
REMARK   74  A    between atoms: _185  and  _186
REMARK   75  A    between atoms: _191  and  _193
REMARK   76  A    between atoms: _193  and  _194
REMARK   77  A    between atoms: _193  and  _196
REMARK   78  A    between atoms: _196  and  _197
REMARK   79  A    between atoms: _197  and  _198
REMARK   80  A    between atoms: _203  and  _205
REMARK   81  A    between atoms: _205  and  _206
REMARK   82  A    between atoms: _205  and  _208
REMARK   83  A    between atoms: _208  and  _209
REMARK   84  A    between atoms: _214  and  _215
REMARK   85  A    between atoms: _217  and  _219
REMARK   86  A    between atoms: _219  and  _220
REMARK   87  A    between atoms: _219  and  _222
REMARK   88  A    between atoms: _222  and  _223
REMARK   89  A    between atoms: _226  and  _228
REMARK   90  A    between atoms: _228  and  _229
REMARK   91  A    between atoms: _231  and  _233
REMARK   92  A    between atoms: _233  and  _234
REMARK   93  A    between atoms: _233  and  _236
REMARK   94  A    between atoms: _236  and  _237
REMARK   95  A    between atoms: _240  and  _242
REMARK   96  A    between atoms: _242  and  _243
REMARK   97  A    between atoms: _246  and  _248
REMARK   98  A    between atoms: _248  and  _249
REMARK   99  A    between atoms: _248  and  _251
REMARK  100  A    between atoms: _251  and  _252
REMARK  101  A    between atoms: _256  and  _257
REMARK  102  A    between atoms: _262  and  _264
REMARK  103  A    between atoms: _264  and  _265
REMARK  104  A    between atoms: _264  and  _267
REMARK  105  A    between atoms: _267  and  _268
REMARK  106  A    between atoms: _270  and  _272
REMARK  107  A    between atoms: _272  and  _273
REMARK  108  A    between atoms: _272  and  _275
REMARK  109  A    between atoms: _275  and  _276
REMARK  110  A    between atoms: _278  and  _280
REMARK  111  A    between atoms: _280  and  _281
REMARK  112  A    between atoms: _283  and  _285
REMARK  113  A    between atoms: _285  and  _286
REMARK  114  A    between atoms: _285  and  _288
REMARK  115  A    between atoms: _288  and  _289
REMARK  116  A    between atoms: _292  and  _294
REMARK  117  A    between atoms: _294  and  _295
REMARK  118  A    between atoms: _298  and  _300
REMARK  119  A    between atoms: _300  and  _301
REMARK  120  A    between atoms: _300  and  _303
REMARK  121  A    between atoms: _303  and  _304
REMARK  122  A    between atoms: _309  and  _310
REMARK  123  A    between atoms: _312  and  _314
REMARK  124  A    between atoms: _314  and  _315
REMARK  125  A    between atoms: _314  and  _317
REMARK  126  A    between atoms: _317  and  _318
REMARK  127  A    between atoms: _321  and  _323
REMARK  128  A    between atoms: _323  and  _324
REMARK  129  A    between atoms: _323  and  _326
REMARK  130  A    between atoms: _326  and  _327
REMARK  131  A    between atoms: _330  and  _332
REMARK  132  A    between atoms: _332  and  _333
REMARK  133  A    between atoms: _332  and  _335
REMARK  134  A    between atoms: _335  and  _336
REMARK  135  A    between atoms: _336  and  _337
REMARK  136  A    between atoms: _337  and  _338
REMARK  137  A    between atoms: _338  and  _339
REMARK  138  A    between atoms: _343  and  _345
REMARK  139  A    between atoms: _345  and  _346
REMARK  140  A    between atoms: _345  and  _348
REMARK  141  A    between atoms: _348  and  _349
REMARK  142  A    between atoms: _351  and  _353
REMARK  143  A    between atoms: _353  and  _354
REMARK  144  A    between atoms: _356  and  _358
REMARK  145  A    between atoms: _358  and  _359
REMARK  146  A    between atoms: _358  and  _361
REMARK  147  A    between atoms: _361  and  _362
REMARK  148  A    between atoms: _365  and  _367
REMARK  149  A    between atoms: _367  and  _368
REMARK  150  A    between atoms: _367  and  _370
REMARK  151  A    between atoms: _370  and  _371
REMARK  152  A    between atoms: _374  and  _376
REMARK  153  A    between atoms: _376  and  _377
REMARK  154  A    between atoms: _380  and  _382
REMARK  155  A    between atoms: _382  and  _383
REMARK  156  A    between atoms: _382  and  _385
REMARK  157  A    between atoms: _385  and  _386
REMARK  158  A    between atoms: _386  and  _387
REMARK  159  A    between atoms: _387  and  _388
REMARK  160  A    between atoms: _397  and  _399
REMARK  161  A    between atoms: _399  and  _400
REMARK  162  A    between atoms: _402  and  _404
REMARK  163  A    between atoms: _404  and  _405
REMARK  164  A    between atoms: _404  and  _407
REMARK  165  A    between atoms: _407  and  _408
REMARK  166  A    between atoms: _414  and  _416
REMARK  167  A    between atoms: _416  and  _417
REMARK  168  A    between atoms: _416  and  _419
REMARK  169  A    between atoms: _419  and  _420
REMARK  170  A    between atoms: _423  and  _425
REMARK  171  A    between atoms: _425  and  _426
REMARK  172  A    between atoms: _425  and  _428
REMARK  173  A    between atoms: _428  and  _429
REMARK  174  A    between atoms: _434  and  _436
REMARK  175  A    between atoms: _436  and  _437
REMARK  176  A    between atoms: _436  and  _439
REMARK  177  A    between atoms: _439  and  _440
REMARK  178  A    between atoms: _443  and  _445
REMARK  179  A    between atoms: _445  and  _446
REMARK  180  A    between atoms: _445  and  _448
REMARK  181  A    between atoms: _448  and  _449
REMARK  182  A    between atoms: _454  and  _455
REMARK  183  A    between atoms: _457  and  _459
REMARK  184  A    between atoms: _459  and  _460
REMARK  185  A    between atoms: _459  and  _462
REMARK  186  A    between atoms: _462  and  _463
REMARK  187  A    between atoms: _466  and  _468
REMARK  188  A    between atoms: _468  and  _469
REMARK  189  A    between atoms: _468  and  _471
REMARK  190  A    between atoms: _471  and  _472
REMARK  191  A    between atoms: _472  and  _473
REMARK  192  A    between atoms: _476  and  _478
REMARK  193  A    between atoms: _478  and  _479
REMARK  194  A    between atoms: _478  and  _481
REMARK  195  A    between atoms: _481  and  _482
REMARK  196  A    between atoms: _485  and  _487
REMARK  197  A    between atoms: _487  and  _488
REMARK  198  A    between atoms: _490  and  _492
REMARK  199  A    between atoms: _492  and  _493
REMARK  200  A    between atoms: _495  and  _497
REMARK  201  A    between atoms: _497  and  _498
REMARK  202  A    between atoms: _497  and  _500
REMARK  203  A    between atoms: _500  and  _501
REMARK  204  A    between atoms: _501  and  _502
REMARK  205  A    between atoms: _507  and  _509
REMARK  206  A    between atoms: _509  and  _510
REMARK  207  A    between atoms: _513  and  _515
REMARK  208  A    between atoms: _515  and  _516
REMARK  209  A    between atoms: _515  and  _518
REMARK  210  A    between atoms: _518  and  _519
REMARK  211  A    between atoms: _522  and  _524
REMARK  212  A    between atoms: _524  and  _525
REMARK  213  A    between atoms: _524  and  _527
REMARK  214  A    between atoms: _527  and  _528
REMARK  215  A    between atoms: _528  and  _529
REMARK  216  A    between atoms: _534  and  _536
REMARK  217  A    between atoms: _536  and  _537
REMARK  218  A    between atoms: _536  and  _539
REMARK  219  A    between atoms: _539  and  _540
REMARK  220  A    between atoms: _543  and  _545
REMARK  221  A    between atoms: _545  and  _546
REMARK  222  A    between atoms: _545  and  _548
REMARK  223  A    between atoms: _548  and  _549
REMARK  224  A    between atoms: _549  and  _550
REMARK  225  A    between atoms: _550  and  _551
REMARK                            x       y       z     vdW  Elec       q    Type
REMARK                         _______ _______ _______ _____ _____    ______ ____
ROOT
ATOM      1  CB  ARG A   2       4.362  33.241  50.077  0.00  0.00    +0.031 C 
ENDROOT
BRANCH   1   2
ATOM      2  CA  ARG A   2       3.832  33.382  48.646  0.00  0.00    +0.137 C 
BRANCH   2   4
ATOM      3  C   ALA A   1       4.522  32.739  46.434  0.00  0.00    +0.238 C 
ATOM      4  N   ARG A   2       4.838  32.928  47.701  0.00  0.00    -0.298 N 
ATOM      5  H   ARG A   2       5.811  32.751  48.024  0.00  0.00    +0.150 HD
ATOM      6  O   ALA A   1       3.381  32.938  45.979  0.00  0.00    -0.274 OA
BRANCH   3   7
ATOM      7  CA  ALA A   1       5.637  32.250  45.536  0.00  0.00    +0.145 C 
ATOM      8  CB  ALA A   1       5.825  30.744  45.687  0.00  0.00    +0.028 C 
BRANCH   7   9
ATOM      9  N   ALA A   1       6.879  32.961  45.837  0.00  0.00    -0.238 NA
ATOM     10  H   ALA A   1       7.687  32.436  46.230  0.00  0.00    +0.142 HD
ENDBRANCH   7   9
ENDBRANCH   3   7
ENDBRANCH   2   4
BRANCH   2  11
ATOM     11  C   ARG A   2       3.438  34.801  48.338  0.00  0.00    +0.227 C 
ATOM     12  O   ARG A   2       2.242  35.146  48.377  0.00  0.00    -0.286 OA
ENDBRANCH   2  11
ENDBRANCH   1   2
BRANCH   1  13
ATOM     13  CG  ARG A   2       4.411  31.794  50.495  0.00  0.00    +0.045 C 
BRANCH  13  14
ATOM     14  CD  ARG A   2       5.193  31.556  51.756  0.00  0.00    +0.174 C 
BRANCH  14  15
ATOM     15  NE  ARG A   2       5.116  30.152  52.139  0.00  0.00    -0.265 N 
ATOM     16  CZ  ARG A   2       5.844  29.625  53.121  0.00  0.00    +0.342 C 
ATOM     17  NH2 ARG A   2       6.669  30.397  53.777  0.00  0.00    -0.292 N 
ATOM     18 HH21 ARG A   2       7.247  30.005  54.548  0.00  0.00    +0.255 HD
ATOM     19 HH22 ARG A   2       6.748  31.404  53.529  0.00  0.00    +0.255 HD
ATOM     20  NH1 ARG A   2       5.731  28.326  53.428  0.00  0.00    -0.292 N 
ATOM     21 HH11 ARG A   2       6.303  27.922  54.197  0.00  0.00    +0.255 HD
ATOM     22 HH12 ARG A   2       5.071  27.722  52.898  0.00  0.00    +0.255 HD
ATOM     23  HE  ARG A   2       4.461  29.532  51.620  0.00  0.00    +0.259 HD
ENDBRANCH  14  15
ENDBRANCH  13  14
ENDBRANCH   1  13
TORSDOF 8
REMARK  Name = ../refined-set-2016/4r73/4r73_pocket.pdb
REMARK  225 active torsions:
REMARK  status: ('A' for Active; 'I' for Inactive)
REMARK    1  A    between atoms: _1  and  _3
REMARK    2  A    between atoms: _3  and  _4
REMARK    3  A    between atoms: _3  and  _6
REMARK    4  A    between atoms: _8  and  _10
REMARK    5  A    between atoms: _10  and  _11
REMARK    6  A    between atoms: _10  and  _13
REMARK    7  A    between atoms: _13  and  _14
REMARK    8  A    between atoms: _16  and  _18
REMARK    9  A    between atoms: _18  and  _19
REMARK   10  A    between atoms: _22  and  _24
REMARK   11  A    between atoms: _24  and  _25
REMARK   12  A    between atoms: _24  and  _27
REMARK   13  A    between atoms: _27  and  _28
REMARK   14  A    between atoms: _31  and  _33
REMARK   15  A    between atoms: _33  and  _34
REMARK   16  A    between atoms: _33  and  _36
REMARK   17  A    between atoms: _36  and  _37
REMARK   18  A    between atoms: _42  and  _44
REMARK   19  A    between atoms: _44  and  _45
REMARK   20  A    between atoms: _44  and  _47
REMARK   21  A    between atoms: _47  and  _48
REMARK   22  A    between atoms: _48  and  _49
REMARK   23  A    between atoms: _51  and  _53
REMARK   24  A    between atoms: _53  and  _54
REMARK   25  A    between atoms: _53  and  _56
REMARK   26  A    between atoms: _56  and  _57
REMARK   27  A    between atoms: _57  and  _58
REMARK   28  A    between atoms: _58  and  _59
REMARK   29  A    between atoms: _68  and  _70
REMARK   30  A    between atoms: _70  and  _71
REMARK   31  A    between atoms: _70  and  _73
REMARK   32  A    between atoms: _73  and  _74
REMARK   33  A    between atoms: _79  and  _81
REMARK   34  A    between atoms: _81  and  _82
REMARK   35  A    between atoms: _84  and  _86
REMARK   36  A    between atoms: _86  and  _87
REMARK   37  A    between atoms: _86  and  _89
REMARK   38  A    between atoms: _89  and  _90
REMARK   39  A    between atoms: _92  and  _94
REMARK   40  A    between atoms: _94  and  _95
REMARK   41  A    between atoms: _97  and  _99
REMARK   42  A    between atoms: _99  and  _100
REMARK   43  A    between atoms: _99  and  _102
REMARK   44  A    between atoms: _102  and  _103
REMARK   45  A    between atoms: _105  and  _107
REMARK   46  A    between atoms: _107  and  _108
REMARK   47  A    between atoms: _107  and  _110
REMARK   48  A    between atoms: _110  and  _111
REMARK   49  A    between atoms: _114  and  _116
REMARK   50  A    between atoms: _116  and  _117
REMARK   51  A    between atoms: _116  and  _119
REMARK   52  A    between atoms: _119  and  _120
REMARK   53  A    between atoms: _126  and  _128
REMARK   54  A    between atoms: _128  and  _129
REMARK   55  A    between atoms: _128  and  _131
REMARK   56  A    between atoms: _131  and  _132
REMARK   57  A    between atoms: _142  and  _144
REMARK   58  A    between atoms: _144  and  _145
REMARK   59  A    between atoms: _144  and  _147
REMARK   60  A    between atoms: _147  and  _148
REMARK   61  A    between atoms: _153  and  _154
REMARK   62  A    between atoms: _156  and  _158
REMARK   63  A    between atoms: _158  and  _159
REMARK   64  A    between atoms: _161  and  _163
REMARK   65  A    between atoms: _163  and  _164
REMARK   66  A    between atoms: _166  and  _168
REMARK   67  A    between atoms: _168  and  _169
REMARK   68  A    between atoms: _168  and  _171
REMARK   69  A    between atoms: _171  and  _172
REMARK   70  A    between atoms: _175  and  _177
REMARK   71  A    between atoms: _177  and  _178
REMARK   72  A    between atoms: _177  and  _180
REMARK   73  A    between atoms: _180  and  _181
REMARK   74  A    between atoms: _185  and  _186
REMARK   75  A    between atoms: _191  and  _193
REMARK   76  A    between atoms: _193  and  _194
REMARK   77  A    between atoms: _193  and  _196
REMARK   78  A    between atoms: _196  and  _197
REMARK   79  A    between atoms: _197  and  _198
REMARK   80  A    between atoms: _203  and  _205
REMARK   81  A    between atoms: _205  and  _206
REMARK   82  A    between atoms: _205  and  _208
REMARK   83  A    between atoms: _208  and  _209
REMARK   84  A    between atoms: _214  and  _215
REMARK   85  A    between atoms: _217  and  _219
REMARK   86  A    between atoms: _219  and  _220
REMARK   87  A    between atoms: _219  and  _222
REMARK   88  A    between atoms: _222  and  _223
REMARK   89  A    between atoms: _226  and  _228
REMARK   90  A    between atoms: _228  and  _229
REMARK   91  A    between atoms: _231  and  _233
REMARK   92  A    between atoms: _233  and  _234
REMARK   93  A    between atoms: _233  and  _236
REMARK   94  A    between atoms: _236  and  _237
REMARK   95  A    between atoms: _240  and  _242
REMARK   96  A    between atoms: _242  and  _243
REMARK   97  A    between atoms: _246  and  _248
REMARK   98  A    between atoms: _248  and  _249
REMARK   99  A    between atoms: _248  and  _251
REMARK  100  A    between atoms: _251  and  _252
REMARK  101  A    between atoms: _256  and  _257
REMARK  102  A    between atoms: _262  and  _264
REMARK  103  A    between atoms: _264  and  _265
REMARK  104  A    between atoms: _264  and  _267
REMARK  105  A    between atoms: _267  and  _268
REMARK  106  A    between atoms: _270  and  _272
REMARK  107  A    between atoms: _272  and  _273
REMARK  108  A    between atoms: _272  and  _275
REMARK  109  A    between atoms: _275  and  _276
REMARK  110  A    between atoms: _278  and  _280
REMARK  111  A    between atoms: _280  and  _281
REMARK  112  A    between atoms: _283  and  _285
REMARK  113  A    between atoms: _285  and  _286
REMARK  114  A    between atoms: _285  and  _288
REMARK  115  A    between atoms: _288  and  _289
REMARK  116  A    between atoms: _292  and  _294
REMARK  117  A    between atoms: _294  and  _295
REMARK  118  A    between atoms: _298  and  _300
REMARK  119  A    between atoms: _300  and  _301
REMARK  120  A    between atoms: _300  and  _303
REMARK  121  A    between atoms: _303  and  _304
REMARK  122  A    between atoms: _309  and  _310
REMARK  123  A    between atoms: _312  and  _314
REMARK  124  A    between atoms: _314  and  _315
REMARK  125  A    between atoms: _314  and  _317
REMARK  126  A    between atoms: _317  and  _318
REMARK  127  A    between atoms: _321  and  _323
REMARK  128  A    between atoms: _323  and  _324
REMARK  129  A    between atoms: _323  and  _326
REMARK  130  A    between atoms: _326  and  _327
REMARK  131  A    between atoms: _330  and  _332
REMARK  132  A    between atoms: _332  and  _333
REMARK  133  A    between atoms: _332  and  _335
REMARK  134  A    between atoms: _335  and  _336
REMARK  135  A    between atoms: _336  and  _337
REMARK  136  A    between atoms: _337  and  _338
REMARK  137  A    between atoms: _338  and  _339
REMARK  138  A    between atoms: _343  and  _345
REMARK  139  A    between atoms: _345  and  _346
REMARK  140  A    between atoms: _345  and  _348
REMARK  141  A    between atoms: _348  and  _349
REMARK  142  A    between atoms: _351  and  _353
REMARK  143  A    between atoms: _353  and  _354
REMARK  144  A    between atoms: _356  and  _358
REMARK  145  A    between atoms: _358  and  _359
REMARK  146  A    between atoms: _358  and  _361
REMARK  147  A    between atoms: _361  and  _362
REMARK  148  A    between atoms: _365  and  _367
REMARK  149  A    between atoms: _367  and  _368
REMARK  150  A    between atoms: _367  and  _370
REMARK  151  A    between atoms: _370  and  _371
REMARK  152  A    between atoms: _374  and  _376
REMARK  153  A    between atoms: _376  and  _377
REMARK  154  A    between atoms: _380  and  _382
REMARK  155  A    between atoms: _382  and  _383
REMARK  156  A    between atoms: _382  and  _385
REMARK  157  A    between atoms: _385  and  _386
REMARK  158  A    between atoms: _386  and  _387
REMARK  159  A    between atoms: _387  and  _388
REMARK  160  A    between atoms: _397  and  _399
REMARK  161  A    between atoms: _399  and  _400
REMARK  162  A    between atoms: _402  and  _404
REMARK  163  A    between atoms: _404  and  _405
REMARK  164  A    between atoms: _404  and  _407
REMARK  165  A    between atoms: _407  and  _408
REMARK  166  A    between atoms: _414  and  _416
REMARK  167  A    between atoms: _416  and  _417
REMARK  168  A    between atoms: _416  and  _419
REMARK  169  A    between atoms: _419  and  _420
REMARK  170  A    between atoms: _423  and  _425
REMARK  171  A    between atoms: _425  and  _426
REMARK  172  A    between atoms: _425  and  _428
REMARK  173  A    between atoms: _428  and  _429
REMARK  174  A    between atoms: _434  and  _436
REMARK  175  A    between atoms: _436  and  _437
REMARK  176  A    between atoms: _436  and  _439
REMARK  177  A    between atoms: _439  and  _440
REMARK  178  A    between atoms: _443  and  _445
REMARK  179  A    between atoms: _445  and  _446
REMARK  180  A    between atoms: _445  and  _448
REMARK  181  A    between atoms: _448  and  _449
REMARK  182  A    between atoms: _454  and  _455
REMARK  183  A    between atoms: _457  and  _459
REMARK  184  A    between atoms: _459  and  _460
REMARK  185  A    between atoms: _459  and  _462
REMARK  186  A    between atoms: _462  and  _463
REMARK  187  A    between atoms: _466  and  _468
REMARK  188  A    between atoms: _468  and  _469
REMARK  189  A    between atoms: _468  and  _471
REMARK  190  A    between atoms: _471  and  _472
REMARK  191  A    between atoms: _472  and  _473
REMARK  192  A    between atoms: _476  and  _478
REMARK  193  A    between atoms: _478  and  _479
REMARK  194  A    between atoms: _478  and  _481
REMARK  195  A    between atoms: _481  and  _482
REMARK  196  A    between atoms: _485  and  _487
REMARK  197  A    between atoms: _487  and  _488
REMARK  198  A    between atoms: _490  and  _492
REMARK  199  A    between atoms: _492  and  _493
REMARK  200  A    between atoms: _495  and  _497
REMARK  201  A    between atoms: _497  and  _498
REMARK  202  A    between atoms: _497  and  _500
REMARK  203  A    between atoms: _500  and  _501
REMARK  204  A    between atoms: _501  and  _502
REMARK  205  A    between atoms: _507  and  _509
REMARK  206  A    between atoms: _509  and  _510
REMARK  207  A    between atoms: _513  and  _515
REMARK  208  A    between atoms: _515  and  _516
REMARK  209  A    between atoms: _515  and  _518
REMARK  210  A    between atoms: _518  and  _519
REMARK  211  A    between atoms: _522  and  _524
REMARK  212  A    between atoms: _524  and  _525
REMARK  213  A    between atoms: _524  and  _527
REMARK  214  A    between atoms: _527  and  _528
REMARK  215  A    between atoms: _528  and  _529
REMARK  216  A    between atoms: _534  and  _536
REMARK  217  A    between atoms: _536  and  _537
REMARK  218  A    between atoms: _536  and  _539
REMARK  219  A    between atoms: _539  and  _540
REMARK  220  A    between atoms: _543  and  _545
REMARK  221  A    between atoms: _545  and  _546
REMARK  222  A    between atoms: _545  and  _548
REMARK  223  A    between atoms: _548  and  _549
REMARK  224  A    between atoms: _549  and  _550
REMARK  225  A    between atoms: _550  and  _551
REMARK                            x       y       z     vdW  Elec       q    Type
REMARK                         _______ _______ _______ _____ _____    ______ ____
ROOT
ATOM      1  CA  HIS A   4       5.706  22.988  42.791  0.00  0.00    +0.155 C 
ENDROOT
BRANCH   1   3
ATOM      2  C   LEU A   3       6.240  24.756  41.253  0.00  0.00    +0.241 C 
ATOM      3  N   HIS A   4       6.674  23.701  41.929  0.00  0.00    -0.297 N 
ATOM      4  H   HIS A   4       7.662  23.385  41.856  0.00  0.00    +0.150 HD
ATOM      5  O   LEU A   3       5.081  25.154  41.348  0.00  0.00    -0.273 OA
BRANCH   2   6
ATOM      6  CA  LEU A   3       7.192  25.504  40.354  0.00  0.00    +0.149 C 
BRANCH   6   9
ATOM      7  C   PHE A   2       8.934  25.924  41.947  0.00  0.00    +0.241 C 
ATOM      8  O   PHE A   2       8.148  26.287  42.826  0.00  0.00    -0.273 OA
ATOM      9  N   LEU A   3       8.574  25.394  40.786  0.00  0.00    -0.297 N 
ATOM     10  H   LEU A   3       9.273  24.905  40.192  0.00  0.00    +0.150 HD
BRANCH   7  11
ATOM     11  CA  PHE A   2      10.423  26.067  42.140  0.00  0.00    +0.153 C 
BRANCH  11  13
ATOM     12  C   GLY A   1      11.078  28.334  41.694  0.00  0.00    +0.240 C 
ATOM     13  N   PHE A   2      10.719  27.421  42.598  0.00  0.00    -0.297 N 
ATOM     14  H   PHE A   2      10.652  27.668  43.606  0.00  0.00    +0.150 HD
ATOM     15  O   GLY A   1      11.156  28.077  40.495  0.00  0.00    -0.274 OA
BRANCH  12  16
ATOM     16  CA  GLY A   1      11.411  29.715  42.219  0.00  0.00    +0.169 C 
BRANCH  16  17
ATOM     17  N   GLY A   1      11.171  30.708  41.194  0.00  0.00    -0.236 NA
ATOM     18  H   GLY A   1      10.883  30.418  40.238  0.00  0.00    +0.142 HD
ENDBRANCH  16  17
ENDBRANCH  12  16
ENDBRANCH  11  13
BRANCH  11  19
ATOM     19  CB  PHE A   2      10.948  25.032  43.123  0.00  0.00    +0.055 C 
BRANCH  19  20
ATOM     20  CG  PHE A   2      12.450  24.995  43.194  0.00  0.00    -0.020 A 
ATOM     21  CD2 PHE A   2      13.099  25.156  44.408  0.00  0.00    -0.004 A 
ATOM     22  CE2 PHE A   2      14.507  25.116  44.483  0.00  0.00    -0.000 A 
ATOM     23  CZ  PHE A   2      15.230  24.889  43.348  0.00  0.00    -0.000 A 
ATOM     24  CE1 PHE A   2      14.596  24.688  42.125  0.00  0.00    -0.000 A 
ATOM     25  CD1 PHE A   2      13.190  24.729  42.053  0.00  0.00    -0.004 A 
ENDBRANCH  19  20
ENDBRANCH  11  19
ENDBRANCH   7  11
ENDBRANCH   6   9
BRANCH   6  26
ATOM     26  CB  LEU A   3       7.045  25.036  38.905  0.00  0.00    +0.029 C 
BRANCH  26  27
ATOM     27  CG  LEU A   3       7.789  25.962  37.939  0.00  0.00    +0.002 C 
ATOM     28  CD2 LEU A   3       7.191  27.382  38.004  0.00  0.00    +0.000 C 
ATOM     29  CD1 LEU A   3       7.646  25.393  36.542  0.00  0.00    +0.000 C 
ENDBRANCH  26  27
ENDBRANCH   6  26
ENDBRANCH   2   6
ENDBRANCH   1   3
BRANCH   1  30
ATOM     30  C   HIS A   4       5.182  23.870  43.924  0.00  0.00    +0.241 C 
ATOM     31  O   HIS A   4       4.104  23.630  44.431  0.00  0.00    -0.273 OA
ATOM     32  N   ASP A   5       5.941  24.891  44.343  0.00  0.00    -0.297 N 
ATOM     33  H   ASP A   5       6.878  25.051  43.921  0.00  0.00    +0.150 HD
BRANCH  32  34
ATOM     34  CA  ASP A   5       5.442  25.792  45.409  0.00  0.00    +0.160 C 
BRANCH  34  35
ATOM     35  C   ASP A   5       4.347  26.656  44.849  0.00  0.00    +0.241 C 
ATOM     36  O   ASP A   5       3.361  26.941  45.535  0.00  0.00    -0.273 OA
ATOM     37  N   TYR A   6       4.520  27.057  43.601  0.00  0.00    -0.298 N 
ATOM     38  H   TYR A   6       5.393  26.806  43.095  0.00  0.00    +0.150 HD
BRANCH  37  39
ATOM     39  CA  TYR A   6       3.495  27.849  42.927  0.00  0.00    +0.141 C 
BRANCH  39  40
ATOM     40  C   TYR A   6       2.271  26.987  42.642  0.00  0.00    +0.227 C 
ATOM     41  O   TYR A   6       1.134  27.476  42.762  0.00  0.00    -0.286 OA
ENDBRANCH  39  40
BRANCH  39  42
ATOM     42  CB  TYR A   6       4.059  28.470  41.636  0.00  0.00    +0.054 C 
BRANCH  42  43
ATOM     43  CG  TYR A   6       5.172  29.456  41.917  0.00  0.00    -0.020 A 
ATOM     44  CD2 TYR A   6       4.921  30.815  42.086  0.00  0.00    -0.001 A 
ATOM     45  CE2 TYR A   6       5.954  31.711  42.345  0.00  0.00    +0.036 A 
ATOM     46  CZ  TYR A   6       7.232  31.247  42.520  0.00  0.00    +0.134 A 
ATOM     47  CE1 TYR A   6       7.511  29.906  42.374  0.00  0.00    +0.036 A 
ATOM     48  CD1 TYR A   6       6.485  29.013  42.054  0.00  0.00    -0.001 A 
BRANCH  46  49
ATOM     49  OH  TYR A   6       8.267  32.096  42.839  0.00  0.00    -0.506 OA
ATOM     50  HH  TYR A   6       9.105  31.576  42.923  0.00  0.00    +0.292 HD
ENDBRANCH  46  49
ENDBRANCH  42  43
ENDBRANCH  39  42
ENDBRANCH  37  39
ENDBRANCH  34  35
BRANCH  34  51
ATOM     51  CB  ASP A   5       6.588  26.686  45.947  0.00  0.00    +0.143 C 
BRANCH  51  52
ATOM     52  CG  ASP A   5       7.621  25.901  46.731  0.00  0.00    +0.367 C 
ATOM     53  OD2 ASP A   5       7.286  24.896  47.409  0.00  0.00    -0.246 OA
ATOM     54  OD1 ASP A   5       8.802  26.311  46.661  0.00  0.00    -0.246 OA
ENDBRANCH  51  52
ENDBRANCH  34  51
ENDBRANCH  32  34
ENDBRANCH   1  30
BRANCH   1  55
ATOM     55  CB  HIS A   4       6.323  21.702  43.364  0.00  0.00    +0.076 C 
BRANCH  55  56
ATOM     56  CG  HIS A   4       7.553  21.943  44.171  0.00  0.00    +0.082 A 
ATOM     57  CD2 HIS A   4       7.725  22.331  45.459  0.00  0.00    +0.115 A 
ATOM     58  NE2 HIS A   4       9.091  22.441  45.662  0.00  0.00    -0.221 NA
ATOM     59  CE1 HIS A   4       9.716  22.142  44.542  0.00  0.00    +0.199 A 
ATOM     60  ND1 HIS A   4       8.815  21.855  43.620  0.00  0.00    -0.227 NA
ENDBRANCH  55  56
ENDBRANCH   1  55
TORSDOF 23
REMARK  Name = ../refined-set-2016/4r73/4r73_pocket.pdb
REMARK  225 active torsions:
REMARK  status: ('A' for Active; 'I' for Inactive)
REMARK    1  A    between atoms: _1  and  _3
REMARK    2  A    between atoms: _3  and  _4
REMARK    3  A    between atoms: _3  and  _6
REMARK    4  A    between atoms: _8  and  _10
REMARK    5  A    between atoms: _10  and  _11
REMARK    6  A    between atoms: _10  and  _13
REMARK    7  A    between atoms: _13  and  _14
REMARK    8  A    between atoms: _16  and  _18
REMARK    9  A    between atoms: _18  and  _19
REMARK   10  A    between atoms: _22  and  _24
REMARK   11  A    between atoms: _24  and  _25
REMARK   12  A    between atoms: _24  and  _27
REMARK   13  A    between atoms: _27  and  _28
REMARK   14  A    between atoms: _31  and  _33
REMARK   15  A    between atoms: _33  and  _34
REMARK   16  A    between atoms: _33  and  _36
REMARK   17  A    between atoms: _36  and  _37
REMARK   18  A    between atoms: _42  and  _44
REMARK   19  A    between atoms: _44  and  _45
REMARK   20  A    between atoms: _44  and  _47
REMARK   21  A    between atoms: _47  and  _48
REMARK   22  A    between atoms: _48  and  _49
REMARK   23  A    between atoms: _51  and  _53
REMARK   24  A    between atoms: _53  and  _54
REMARK   25  A    between atoms: _53  and  _56
REMARK   26  A    between atoms: _56  and  _57
REMARK   27  A    between atoms: _57  and  _58
REMARK   28  A    between atoms: _58  and  _59
REMARK   29  A    between atoms: _68  and  _70
REMARK   30  A    between atoms: _70  and  _71
REMARK   31  A    between atoms: _70  and  _73
REMARK   32  A    between atoms: _73  and  _74
REMARK   33  A    between atoms: _79  and  _81
REMARK   34  A    between atoms: _81  and  _82
REMARK   35  A    between atoms: _84  and  _86
REMARK   36  A    between atoms: _86  and  _87
REMARK   37  A    between atoms: _86  and  _89
REMARK   38  A    between atoms: _89  and  _90
REMARK   39  A    between atoms: _92  and  _94
REMARK   40  A    between atoms: _94  and  _95
REMARK   41  A    between atoms: _97  and  _99
REMARK   42  A    between atoms: _99  and  _100
REMARK   43  A    between atoms: _99  and  _102
REMARK   44  A    between atoms: _102  and  _103
REMARK   45  A    between atoms: _105  and  _107
REMARK   46  A    between atoms: _107  and  _108
REMARK   47  A    between atoms: _107  and  _110
REMARK   48  A    between atoms: _110  and  _111
REMARK   49  A    between atoms: _114  and  _116
REMARK   50  A    between atoms: _116  and  _117
REMARK   51  A    between atoms: _116  and  _119
REMARK   52  A    between atoms: _119  and  _120
REMARK   53  A    between atoms: _126  and  _128
REMARK   54  A    between atoms: _128  and  _129
REMARK   55  A    between atoms: _128  and  _131
REMARK   56  A    between atoms: _131  and  _132
REMARK   57  A    between atoms: _142  and  _144
REMARK   58  A    between atoms: _144  and  _145
REMARK   59  A    between atoms: _144  and  _147
REMARK   60  A    between atoms: _147  and  _148
REMARK   61  A    between atoms: _153  and  _154
REMARK   62  A    between atoms: _156  and  _158
REMARK   63  A    between atoms: _158  and  _159
REMARK   64  A    between atoms: _161  and  _163
REMARK   65  A    between atoms: _163  and  _164
REMARK   66  A    between atoms: _166  and  _168
REMARK   67  A    between atoms: _168  and  _169
REMARK   68  A    between atoms: _168  and  _171
REMARK   69  A    between atoms: _171  and  _172
REMARK   70  A    between atoms: _175  and  _177
REMARK   71  A    between atoms: _177  and  _178
REMARK   72  A    between atoms: _177  and  _180
REMARK   73  A    between atoms: _180  and  _181
REMARK   74  A    between atoms: _185  and  _186
REMARK   75  A    between atoms: _191  and  _193
REMARK   76  A    between atoms: _193  and  _194
REMARK   77  A    between atoms: _193  and  _196
REMARK   78  A    between atoms: _196  and  _197
REMARK   79  A    between atoms: _197  and  _198
REMARK   80  A    between atoms: _203  and  _205
REMARK   81  A    between atoms: _205  and  _206
REMARK   82  A    between atoms: _205  and  _208
REMARK   83  A    between atoms: _208  and  _209
REMARK   84  A    between atoms: _214  and  _215
REMARK   85  A    between atoms: _217  and  _219
REMARK   86  A    between atoms: _219  and  _220
REMARK   87  A    between atoms: _219  and  _222
REMARK   88  A    between atoms: _222  and  _223
REMARK   89  A    between atoms: _226  and  _228
REMARK   90  A    between atoms: _228  and  _229
REMARK   91  A    between atoms: _231  and  _233
REMARK   92  A    between atoms: _233  and  _234
REMARK   93  A    between atoms: _233  and  _236
REMARK   94  A    between atoms: _236  and  _237
REMARK   95  A    between atoms: _240  and  _242
REMARK   96  A    between atoms: _242  and  _243
REMARK   97  A    between atoms: _246  and  _248
REMARK   98  A    between atoms: _248  and  _249
REMARK   99  A    between atoms: _248  and  _251
REMARK  100  A    between atoms: _251  and  _252
REMARK  101  A    between atoms: _256  and  _257
REMARK  102  A    between atoms: _262  and  _264
REMARK  103  A    between atoms: _264  and  _265
REMARK  104  A    between atoms: _264  and  _267
REMARK  105  A    between atoms: _267  and  _268
REMARK  106  A    between atoms: _270  and  _272
REMARK  107  A    between atoms: _272  and  _273
REMARK  108  A    between atoms: _272  and  _275
REMARK  109  A    between atoms: _275  and  _276
REMARK  110  A    between atoms: _278  and  _280
REMARK  111  A    between atoms: _280  and  _281
REMARK  112  A    between atoms: _283  and  _285
REMARK  113  A    between atoms: _285  and  _286
REMARK  114  A    between atoms: _285  and  _288
REMARK  115  A    between atoms: _288  and  _289
REMARK  116  A    between atoms: _292  and  _294
REMARK  117  A    between atoms: _294  and  _295
REMARK  118  A    between atoms: _298  and  _300
REMARK  119  A    between atoms: _300  and  _301
REMARK  120  A    between atoms: _300  and  _303
REMARK  121  A    between atoms: _303  and  _304
REMARK  122  A    between atoms: _309  and  _310
REMARK  123  A    between atoms: _312  and  _314
REMARK  124  A    between atoms: _314  and  _315
REMARK  125  A    between atoms: _314  and  _317
REMARK  126  A    between atoms: _317  and  _318
REMARK  127  A    between atoms: _321  and  _323
REMARK  128  A    between atoms: _323  and  _324
REMARK  129  A    between atoms: _323  and  _326
REMARK  130  A    between atoms: _326  and  _327
REMARK  131  A    between atoms: _330  and  _332
REMARK  132  A    between atoms: _332  and  _333
REMARK  133  A    between atoms: _332  and  _335
REMARK  134  A    between atoms: _335  and  _336
REMARK  135  A    between atoms: _336  and  _337
REMARK  136  A    between atoms: _337  and  _338
REMARK  137  A    between atoms: _338  and  _339
REMARK  138  A    between atoms: _343  and  _345
REMARK  139  A    between atoms: _345  and  _346
REMARK  140  A    between atoms: _345  and  _348
REMARK  141  A    between atoms: _348  and  _349
REMARK  142  A    between atoms: _351  and  _353
REMARK  143  A    between atoms: _353  and  _354
REMARK  144  A    between atoms: _356  and  _358
REMARK  145  A    between atoms: _358  and  _359
REMARK  146  A    between atoms: _358  and  _361
REMARK  147  A    between atoms: _361  and  _362
REMARK  148  A    between atoms: _365  and  _367
REMARK  149  A    between atoms: _367  and  _368
REMARK  150  A    between atoms: _367  and  _370
REMARK  151  A    between atoms: _370  and  _371
REMARK  152  A    between atoms: _374  and  _376
REMARK  153  A    between atoms: _376  and  _377
REMARK  154  A    between atoms: _380  and  _382
REMARK  155  A    between atoms: _382  and  _383
REMARK  156  A    between atoms: _382  and  _385
REMARK  157  A    between atoms: _385  and  _386
REMARK  158  A    between atoms: _386  and  _387
REMARK  159  A    between atoms: _387  and  _388
REMARK  160  A    between atoms: _397  and  _399
REMARK  161  A    between atoms: _399  and  _400
REMARK  162  A    between atoms: _402  and  _404
REMARK  163  A    between atoms: _404  and  _405
REMARK  164  A    between atoms: _404  and  _407
REMARK  165  A    between atoms: _407  and  _408
REMARK  166  A    between atoms: _414  and  _416
REMARK  167  A    between atoms: _416  and  _417
REMARK  168  A    between atoms: _416  and  _419
REMARK  169  A    between atoms: _419  and  _420
REMARK  170  A    between atoms: _423  and  _425
REMARK  171  A    between atoms: _425  and  _426
REMARK  172  A    between atoms: _425  and  _428
REMARK  173  A    between atoms: _428  and  _429
REMARK  174  A    between atoms: _434  and  _436
REMARK  175  A    between atoms: _436  and  _437
REMARK  176  A    between atoms: _436  and  _439
REMARK  177  A    between atoms: _439  and  _440
REMARK  178  A    between atoms: _443  and  _445
REMARK  179  A    between atoms: _445  and  _446
REMARK  180  A    between atoms: _445  and  _448
REMARK  181  A    between atoms: _448  and  _449
REMARK  182  A    between atoms: _454  and  _455
REMARK  183  A    between atoms: _457  and  _459
REMARK  184  A    between atoms: _459  and  _460
REMARK  185  A    between atoms: _459  and  _462
REMARK  186  A    between atoms: _462  and  _463
REMARK  187  A    between atoms: _466  and  _468
REMARK  188  A    between atoms: _468  and  _469
REMARK  189  A    between atoms: _468  and  _471
REMARK  190  A    between atoms: _471  and  _472
REMARK  191  A    between atoms: _472  and  _473
REMARK  192  A    between atoms: _476  and  _478
REMARK  193  A    between atoms: _478  and  _479
REMARK  194  A    between atoms: _478  and  _481
REMARK  195  A    between atoms: _481  and  _482
REMARK  196  A    between atoms: _485  and  _487
REMARK  197  A    between atoms: _487  and  _488
REMARK  198  A    between atoms: _490  and  _492
REMARK  199  A    between atoms: _492  and  _493
REMARK  200  A    between atoms: _495  and  _497
REMARK  201  A    between atoms: _497  and  _498
REMARK  202  A    between atoms: _497  and  _500
REMARK  203  A    between atoms: _500  and  _501
REMARK  204  A    between atoms: _501  and  _502
REMARK  205  A    between atoms: _507  and  _509
REMARK  206  A    between atoms: _509  and  _510
REMARK  207  A    between atoms: _513  and  _515
REMARK  208  A    between atoms: _515  and  _516
REMARK  209  A    between atoms: _515  and  _518
REMARK  210  A    between atoms: _518  and  _519
REMARK  211  A    between atoms: _522  and  _524
REMARK  212  A    between atoms: _524  and  _525
REMARK  213  A    between atoms: _524  and  _527
REMARK  214  A    between atoms: _527  and  _528
REMARK  215  A    between atoms: _528  and  _529
REMARK  216  A    between atoms: _534  and  _536
REMARK  217  A    between atoms: _536  and  _537
REMARK  218  A    between atoms: _536  and  _539
REMARK  219  A    between atoms: _539  and  _540
REMARK  220  A    between atoms: _543  and  _545
REMARK  221  A    between atoms: _545  and  _546
REMARK  222  A    between atoms: _545  and  _548
REMARK  223  A    between atoms: _548  and  _549
REMARK  224  A    between atoms: _549  and  _550
REMARK  225  A    between atoms: _550  and  _551
REMARK                            x       y       z     vdW  Elec       q    Type
REMARK                         _______ _______ _______ _____ _____    ______ ____
ROOT
ATOM      1  CA  LEU A   1       0.356  24.405  45.703  0.00  0.00    +0.133 C 
ENDROOT
BRANCH   1   2
ATOM      2  N   LEU A   1       1.116  24.512  44.461  0.00  0.00    -0.239 NA
ATOM      3  H   LEU A   1       2.156  24.511  44.490  0.00  0.00    +0.142 HD
ENDBRANCH   1   2
BRANCH   1   4
ATOM      4  C   LEU A   1      -0.475  25.658  45.934  0.00  0.00    +0.224 C 
ATOM      5  O   LEU A   1      -1.648  25.548  46.310  0.00  0.00    -0.287 OA
ENDBRANCH   1   4
BRANCH   1   6
ATOM      6  CB  LEU A   1       1.301  24.182  46.896  0.00  0.00    +0.025 C 
BRANCH   6   7
ATOM      7  CG  LEU A   1       0.520  24.047  48.217  0.00  0.00    +0.002 C 
ATOM      8  CD2 LEU A   1       1.455  24.114  49.423  0.00  0.00    +0.000 C 
ATOM      9  CD1 LEU A   1      -0.374  22.780  48.258  0.00  0.00    +0.000 C 
ENDBRANCH   6   7
ENDBRANCH   1   6
TORSDOF 4
REMARK  Name = ../refined-set-2016/4r73/4r73_pocket.pdb
REMARK  225 active torsions:
REMARK  status: ('A' for Active; 'I' for Inactive)
REMARK    1  A    between atoms: _1  and  _3
REMARK    2  A    between atoms: _3  and  _4
REMARK    3  A    between atoms: _3  and  _6
REMARK    4  A    between atoms: _8  and  _10
REMARK    5  A    between atoms: _10  and  _11
REMARK    6  A    between atoms: _10  and  _13
REMARK    7  A    between atoms: _13  and  _14
REMARK    8  A    between atoms: _16  and  _18
REMARK    9  A    between atoms: _18  and  _19
REMARK   10  A    between atoms: _22  and  _24
REMARK   11  A    between atoms: _24  and  _25
REMARK   12  A    between atoms: _24  and  _27
REMARK   13  A    between atoms: _27  and  _28
REMARK   14  A    between atoms: _31  and  _33
REMARK   15  A    between atoms: _33  and  _34
REMARK   16  A    between atoms: _33  and  _36
REMARK   17  A    between atoms: _36  and  _37
REMARK   18  A    between atoms: _42  and  _44
REMARK   19  A    between atoms: _44  and  _45
REMARK   20  A    between atoms: _44  and  _47
REMARK   21  A    between atoms: _47  and  _48
REMARK   22  A    between atoms: _48  and  _49
REMARK   23  A    between atoms: _51  and  _53
REMARK   24  A    between atoms: _53  and  _54
REMARK   25  A    between atoms: _53  and  _56
REMARK   26  A    between atoms: _56  and  _57
REMARK   27  A    between atoms: _57  and  _58
REMARK   28  A    between atoms: _58  and  _59
REMARK   29  A    between atoms: _68  and  _70
REMARK   30  A    between atoms: _70  and  _71
REMARK   31  A    between atoms: _70  and  _73
REMARK   32  A    between atoms: _73  and  _74
REMARK   33  A    between atoms: _79  and  _81
REMARK   34  A    between atoms: _81  and  _82
REMARK   35  A    between atoms: _84  and  _86
REMARK   36  A    between atoms: _86  and  _87
REMARK   37  A    between atoms: _86  and  _89
REMARK   38  A    between atoms: _89  and  _90
REMARK   39  A    between atoms: _92  and  _94
REMARK   40  A    between atoms: _94  and  _95
REMARK   41  A    between atoms: _97  and  _99
REMARK   42  A    between atoms: _99  and  _100
REMARK   43  A    between atoms: _99  and  _102
REMARK   44  A    between atoms: _102  and  _103
REMARK   45  A    between atoms: _105  and  _107
REMARK   46  A    between atoms: _107  and  _108
REMARK   47  A    between atoms: _107  and  _110
REMARK   48  A    between atoms: _110  and  _111
REMARK   49  A    between atoms: _114  and  _116
REMARK   50  A    between atoms: _116  and  _117
REMARK   51  A    between atoms: _116  and  _119
REMARK   52  A    between atoms: _119  and  _120
REMARK   53  A    between atoms: _126  and  _128
REMARK   54  A    between atoms: _128  and  _129
REMARK   55  A    between atoms: _128  and  _131
REMARK   56  A    between atoms: _131  and  _132
REMARK   57  A    between atoms: _142  and  _144
REMARK   58  A    between atoms: _144  and  _145
REMARK   59  A    between atoms: _144  and  _147
REMARK   60  A    between atoms: _147  and  _148
REMARK   61  A    between atoms: _153  and  _154
REMARK   62  A    between atoms: _156  and  _158
REMARK   63  A    between atoms: _158  and  _159
REMARK   64  A    between atoms: _161  and  _163
REMARK   65  A    between atoms: _163  and  _164
REMARK   66  A    between atoms: _166  and  _168
REMARK   67  A    between atoms: _168  and  _169
REMARK   68  A    between atoms: _168  and  _171
REMARK   69  A    between atoms: _171  and  _172
REMARK   70  A    between atoms: _175  and  _177
REMARK   71  A    between atoms: _177  and  _178
REMARK   72  A    between atoms: _177  and  _180
REMARK   73  A    between atoms: _180  and  _181
REMARK   74  A    between atoms: _185  and  _186
REMARK   75  A    between atoms: _191  and  _193
REMARK   76  A    between atoms: _193  and  _194
REMARK   77  A    between atoms: _193  and  _196
REMARK   78  A    between atoms: _196  and  _197
REMARK   79  A    between atoms: _197  and  _198
REMARK   80  A    between atoms: _203  and  _205
REMARK   81  A    between atoms: _205  and  _206
REMARK   82  A    between atoms: _205  and  _208
REMARK   83  A    between atoms: _208  and  _209
REMARK   84  A    between atoms: _214  and  _215
REMARK   85  A    between atoms: _217  and  _219
REMARK   86  A    between atoms: _219  and  _220
REMARK   87  A    between atoms: _219  and  _222
REMARK   88  A    between atoms: _222  and  _223
REMARK   89  A    between atoms: _226  and  _228
REMARK   90  A    between atoms: _228  and  _229
REMARK   91  A    between atoms: _231  and  _233
REMARK   92  A    between atoms: _233  and  _234
REMARK   93  A    between atoms: _233  and  _236
REMARK   94  A    between atoms: _236  and  _237
REMARK   95  A    between atoms: _240  and  _242
REMARK   96  A    between atoms: _242  and  _243
REMARK   97  A    between atoms: _246  and  _248
REMARK   98  A    between atoms: _248  and  _249
REMARK   99  A    between atoms: _248  and  _251
REMARK  100  A    between atoms: _251  and  _252
REMARK  101  A    between atoms: _256  and  _257
REMARK  102  A    between atoms: _262  and  _264
REMARK  103  A    between atoms: _264  and  _265
REMARK  104  A    between atoms: _264  and  _267
REMARK  105  A    between atoms: _267  and  _268
REMARK  106  A    between atoms: _270  and  _272
REMARK  107  A    between atoms: _272  and  _273
REMARK  108  A    between atoms: _272  and  _275
REMARK  109  A    between atoms: _275  and  _276
REMARK  110  A    between atoms: _278  and  _280
REMARK  111  A    between atoms: _280  and  _281
REMARK  112  A    between atoms: _283  and  _285
REMARK  113  A    between atoms: _285  and  _286
REMARK  114  A    between atoms: _285  and  _288
REMARK  115  A    between atoms: _288  and  _289
REMARK  116  A    between atoms: _292  and  _294
REMARK  117  A    between atoms: _294  and  _295
REMARK  118  A    between atoms: _298  and  _300
REMARK  119  A    between atoms: _300  and  _301
REMARK  120  A    between atoms: _300  and  _303
REMARK  121  A    between atoms: _303  and  _304
REMARK  122  A    between atoms: _309  and  _310
REMARK  123  A    between atoms: _312  and  _314
REMARK  124  A    between atoms: _314  and  _315
REMARK  125  A    between atoms: _314  and  _317
REMARK  126  A    between atoms: _317  and  _318
REMARK  127  A    between atoms: _321  and  _323
REMARK  128  A    between atoms: _323  and  _324
REMARK  129  A    between atoms: _323  and  _326
REMARK  130  A    between atoms: _326  and  _327
REMARK  131  A    between atoms: _330  and  _332
REMARK  132  A    between atoms: _332  and  _333
REMARK  133  A    between atoms: _332  and  _335
REMARK  134  A    between atoms: _335  and  _336
REMARK  135  A    between atoms: _336  and  _337
REMARK  136  A    between atoms: _337  and  _338
REMARK  137  A    between atoms: _338  and  _339
REMARK  138  A    between atoms: _343  and  _345
REMARK  139  A    between atoms: _345  and  _346
REMARK  140  A    between atoms: _345  and  _348
REMARK  141  A    between atoms: _348  and  _349
REMARK  142  A    between atoms: _351  and  _353
REMARK  143  A    between atoms: _353  and  _354
REMARK  144  A    between atoms: _356  and  _358
REMARK  145  A    between atoms: _358  and  _359
REMARK  146  A    between atoms: _358  and  _361
REMARK  147  A    between atoms: _361  and  _362
REMARK  148  A    between atoms: _365  and  _367
REMARK  149  A    between atoms: _367  and  _368
REMARK  150  A    between atoms: _367  and  _370
REMARK  151  A    between atoms: _370  and  _371
REMARK  152  A    between atoms: _374  and  _376
REMARK  153  A    between atoms: _376  and  _377
REMARK  154  A    between atoms: _380  and  _382
REMARK  155  A    between atoms: _382  and  _383
REMARK  156  A    between atoms: _382  and  _385
REMARK  157  A    between atoms: _385  and  _386
REMARK  158  A    between atoms: _386  and  _387
REMARK  159  A    between atoms: _387  and  _388
REMARK  160  A    between atoms: _397  and  _399
REMARK  161  A    between atoms: _399  and  _400
REMARK  162  A    between atoms: _402  and  _404
REMARK  163  A    between atoms: _404  and  _405
REMARK  164  A    between atoms: _404  and  _407
REMARK  165  A    between atoms: _407  and  _408
REMARK  166  A    between atoms: _414  and  _416
REMARK  167  A    between atoms: _416  and  _417
REMARK  168  A    between atoms: _416  and  _419
REMARK  169  A    between atoms: _419  and  _420
REMARK  170  A    between atoms: _423  and  _425
REMARK  171  A    between atoms: _425  and  _426
REMARK  172  A    between atoms: _425  and  _428
REMARK  173  A    between atoms: _428  and  _429
REMARK  174  A    between atoms: _434  and  _436
REMARK  175  A    between atoms: _436  and  _437
REMARK  176  A    between atoms: _436  and  _439
REMARK  177  A    between atoms: _439  and  _440
REMARK  178  A    between atoms: _443  and  _445
REMARK  179  A    between atoms: _445  and  _446
REMARK  180  A    between atoms: _445  and  _448
REMARK  181  A    between atoms: _448  and  _449
REMARK  182  A    between atoms: _454  and  _455
REMARK  183  A    between atoms: _457  and  _459
REMARK  184  A    between atoms: _459  and  _460
REMARK  185  A    between atoms: _459  and  _462
REMARK  186  A    between atoms: _462  and  _463
REMARK  187  A    between atoms: _466  and  _468
REMARK  188  A    between atoms: _468  and  _469
REMARK  189  A    between atoms: _468  and  _471
REMARK  190  A    between atoms: _471  and  _472
REMARK  191  A    between atoms: _472  and  _473
REMARK  192  A    between atoms: _476  and  _478
REMARK  193  A    between atoms: _478  and  _479
REMARK  194  A    between atoms: _478  and  _481
REMARK  195  A    between atoms: _481  and  _482
REMARK  196  A    between atoms: _485  and  _487
REMARK  197  A    between atoms: _487  and  _488
REMARK  198  A    between atoms: _490  and  _492
REMARK  199  A    between atoms: _492  and  _493
REMARK  200  A    between atoms: _495  and  _497
REMARK  201  A    between atoms: _497  and  _498
REMARK  202  A    between atoms: _497  and  _500
REMARK  203  A    between atoms: _500  and  _501
REMARK  204  A    between atoms: _501  and  _502
REMARK  205  A    between atoms: _507  and  _509
REMARK  206  A    between atoms: _509  and  _510
REMARK  207  A    between atoms: _513  and  _515
REMARK  208  A    between atoms: _515  and  _516
REMARK  209  A    between atoms: _515  and  _518
REMARK  210  A    between atoms: _518  and  _519
REMARK  211  A    between atoms: _522  and  _524
REMARK  212  A    between atoms: _524  and  _525
REMARK  213  A    between atoms: _524  and  _527
REMARK  214  A    between atoms: _527  and  _528
REMARK  215  A    between atoms: _528  and  _529
REMARK  216  A    between atoms: _534  and  _536
REMARK  217  A    between atoms: _536  and  _537
REMARK  218  A    between atoms: _536  and  _539
REMARK  219  A    between atoms: _539  and  _540
REMARK  220  A    between atoms: _543  and  _545
REMARK  221  A    between atoms: _545  and  _546
REMARK  222  A    between atoms: _545  and  _548
REMARK  223  A    between atoms: _548  and  _549
REMARK  224  A    between atoms: _549  and  _550
REMARK  225  A    between atoms: _550  and  _551
REMARK                            x       y       z     vdW  Elec       q    Type
REMARK                         _______ _______ _______ _____ _____    ______ ____
ROOT
ATOM      1  CA  LEU A   2      17.286  17.597  43.600  0.00  0.00    +0.149 C 
ENDROOT
BRANCH   1   3
ATOM      2  C   GLU A   1      16.628  19.518  42.289  0.00  0.00    +0.238 C 
ATOM      3  N   LEU A   2      17.586  18.814  42.890  0.00  0.00    -0.297 N 
ATOM      4  H   LEU A   2      18.569  19.149  42.846  0.00  0.00    +0.150 HD
ATOM      5  O   GLU A   1      15.586  18.999  41.840  0.00  0.00    -0.274 OA
BRANCH   2   6
ATOM      6  CA  GLU A   1      16.849  21.013  42.197  0.00  0.00    +0.145 C 
BRANCH   6   7
ATOM      7  N   GLU A   1      16.178  21.540  41.015  0.00  0.00    -0.238 NA
ATOM      8  H   GLU A   1      15.185  21.840  41.083  0.00  0.00    +0.142 HD
ENDBRANCH   6   7
BRANCH   6   9
ATOM      9  CB  GLU A   1      16.297  21.646  43.476  0.00  0.00    +0.038 C 
BRANCH   9  10
ATOM     10  CG  GLU A   1      14.752  21.481  43.599  0.00  0.00    +0.116 C 
BRANCH  10  11
ATOM     11  CD  GLU A   1      14.226  21.787  45.022  0.00  0.00    +0.365 C 
ATOM     12  OE2 GLU A   1      15.002  21.963  46.002  0.00  0.00    -0.246 OA
ATOM     13  OE1 GLU A   1      12.992  21.868  45.174  0.00  0.00    -0.246 OA
ENDBRANCH  10  11
ENDBRANCH   9  10
ENDBRANCH   6   9
ENDBRANCH   2   6
ENDBRANCH   1   3
BRANCH   1  14
ATOM     14  C   LEU A   2      17.229  17.961  45.058  0.00  0.00    +0.241 C 
ATOM     15  N   GLY A   3      16.185  17.517  45.748  0.00  0.00    -0.295 N 
ATOM     16  H   GLY A   3      15.403  17.046  45.250  0.00  0.00    +0.150 HD
ATOM     17  O   LEU A   2      18.123  18.685  45.541  0.00  0.00    -0.273 OA
BRANCH  15  18
ATOM     18  CA  GLY A   3      16.122  17.682  47.191  0.00  0.00    +0.176 C 
BRANCH  18  19
ATOM     19  C   GLY A   3      17.108  16.698  47.794  0.00  0.00    +0.243 C 
ATOM     20  N   GLY A   4      17.907  17.131  48.769  0.00  0.00    -0.296 N 
ATOM     21  H   GLY A   4      17.805  18.092  49.153  0.00  0.00    +0.150 HD
ATOM     22  O   GLY A   3      17.153  15.556  47.361  0.00  0.00    -0.273 OA
BRANCH  20  23
ATOM     23  CA  GLY A   4      18.940  16.216  49.292  0.00  0.00    +0.163 C 
BRANCH  23  24
ATOM     24  C   GLY A   4      18.614  15.711  50.672  0.00  0.00    +0.229 C 
ATOM     25  O   GLY A   4      17.936  16.381  51.434  0.00  0.00    -0.286 OA
ENDBRANCH  23  24
ENDBRANCH  20  23
ENDBRANCH  18  19
ENDBRANCH  15  18
ENDBRANCH   1  14
BRANCH   1  26
ATOM     26  CB  LEU A   2      18.354  16.532  43.365  0.00  0.00    +0.029 C 
BRANCH  26  27
ATOM     27  CG  LEU A   2      18.472  16.058  41.903  0.00  0.00    +0.002 C 
ATOM     28  CD2 LEU A   2      19.711  15.192  41.637  0.00  0.00    +0.000 C 
ATOM     29  CD1 LEU A   2      17.186  15.309  41.427  0.00  0.00    +0.000 C 
ENDBRANCH  26  27
ENDBRANCH   1  26
TORSDOF 13
REMARK  Name = ../refined-set-2016/4r73/4r73_pocket.pdb
REMARK  225 active torsions:
REMARK  status: ('A' for Active; 'I' for Inactive)
REMARK    1  A    between atoms: _1  and  _3
REMARK    2  A    between atoms: _3  and  _4
REMARK    3  A    between atoms: _3  and  _6
REMARK    4  A    between atoms: _8  and  _10
REMARK    5  A    between atoms: _10  and  _11
REMARK    6  A    between atoms: _10  and  _13
REMARK    7  A    between atoms: _13  and  _14
REMARK    8  A    between atoms: _16  and  _18
REMARK    9  A    between atoms: _18  and  _19
REMARK   10  A    between atoms: _22  and  _24
REMARK   11  A    between atoms: _24  and  _25
REMARK   12  A    between atoms: _24  and  _27
REMARK   13  A    between atoms: _27  and  _28
REMARK   14  A    between atoms: _31  and  _33
REMARK   15  A    between atoms: _33  and  _34
REMARK   16  A    between atoms: _33  and  _36
REMARK   17  A    between atoms: _36  and  _37
REMARK   18  A    between atoms: _42  and  _44
REMARK   19  A    between atoms: _44  and  _45
REMARK   20  A    between atoms: _44  and  _47
REMARK   21  A    between atoms: _47  and  _48
REMARK   22  A    between atoms: _48  and  _49
REMARK   23  A    between atoms: _51  and  _53
REMARK   24  A    between atoms: _53  and  _54
REMARK   25  A    between atoms: _53  and  _56
REMARK   26  A    between atoms: _56  and  _57
REMARK   27  A    between atoms: _57  and  _58
REMARK   28  A    between atoms: _58  and  _59
REMARK   29  A    between atoms: _68  and  _70
REMARK   30  A    between atoms: _70  and  _71
REMARK   31  A    between atoms: _70  and  _73
REMARK   32  A    between atoms: _73  and  _74
REMARK   33  A    between atoms: _79  and  _81
REMARK   34  A    between atoms: _81  and  _82
REMARK   35  A    between atoms: _84  and  _86
REMARK   36  A    between atoms: _86  and  _87
REMARK   37  A    between atoms: _86  and  _89
REMARK   38  A    between atoms: _89  and  _90
REMARK   39  A    between atoms: _92  and  _94
REMARK   40  A    between atoms: _94  and  _95
REMARK   41  A    between atoms: _97  and  _99
REMARK   42  A    between atoms: _99  and  _100
REMARK   43  A    between atoms: _99  and  _102
REMARK   44  A    between atoms: _102  and  _103
REMARK   45  A    between atoms: _105  and  _107
REMARK   46  A    between atoms: _107  and  _108
REMARK   47  A    between atoms: _107  and  _110
REMARK   48  A    between atoms: _110  and  _111
REMARK   49  A    between atoms: _114  and  _116
REMARK   50  A    between atoms: _116  and  _117
REMARK   51  A    between atoms: _116  and  _119
REMARK   52  A    between atoms: _119  and  _120
REMARK   53  A    between atoms: _126  and  _128
REMARK   54  A    between atoms: _128  and  _129
REMARK   55  A    between atoms: _128  and  _131
REMARK   56  A    between atoms: _131  and  _132
REMARK   57  A    between atoms: _142  and  _144
REMARK   58  A    between atoms: _144  and  _145
REMARK   59  A    between atoms: _144  and  _147
REMARK   60  A    between atoms: _147  and  _148
REMARK   61  A    between atoms: _153  and  _154
REMARK   62  A    between atoms: _156  and  _158
REMARK   63  A    between atoms: _158  and  _159
REMARK   64  A    between atoms: _161  and  _163
REMARK   65  A    between atoms: _163  and  _164
REMARK   66  A    between atoms: _166  and  _168
REMARK   67  A    between atoms: _168  and  _169
REMARK   68  A    between atoms: _168  and  _171
REMARK   69  A    between atoms: _171  and  _172
REMARK   70  A    between atoms: _175  and  _177
REMARK   71  A    between atoms: _177  and  _178
REMARK   72  A    between atoms: _177  and  _180
REMARK   73  A    between atoms: _180  and  _181
REMARK   74  A    between atoms: _185  and  _186
REMARK   75  A    between atoms: _191  and  _193
REMARK   76  A    between atoms: _193  and  _194
REMARK   77  A    between atoms: _193  and  _196
REMARK   78  A    between atoms: _196  and  _197
REMARK   79  A    between atoms: _197  and  _198
REMARK   80  A    between atoms: _203  and  _205
REMARK   81  A    between atoms: _205  and  _206
REMARK   82  A    between atoms: _205  and  _208
REMARK   83  A    between atoms: _208  and  _209
REMARK   84  A    between atoms: _214  and  _215
REMARK   85  A    between atoms: _217  and  _219
REMARK   86  A    between atoms: _219  and  _220
REMARK   87  A    between atoms: _219  and  _222
REMARK   88  A    between atoms: _222  and  _223
REMARK   89  A    between atoms: _226  and  _228
REMARK   90  A    between atoms: _228  and  _229
REMARK   91  A    between atoms: _231  and  _233
REMARK   92  A    between atoms: _233  and  _234
REMARK   93  A    between atoms: _233  and  _236
REMARK   94  A    between atoms: _236  and  _237
REMARK   95  A    between atoms: _240  and  _242
REMARK   96  A    between atoms: _242  and  _243
REMARK   97  A    between atoms: _246  and  _248
REMARK   98  A    between atoms: _248  and  _249
REMARK   99  A    between atoms: _248  and  _251
REMARK  100  A    between atoms: _251  and  _252
REMARK  101  A    between atoms: _256  and  _257
REMARK  102  A    between atoms: _262  and  _264
REMARK  103  A    between atoms: _264  and  _265
REMARK  104  A    between atoms: _264  and  _267
REMARK  105  A    between atoms: _267  and  _268
REMARK  106  A    between atoms: _270  and  _272
REMARK  107  A    between atoms: _272  and  _273
REMARK  108  A    between atoms: _272  and  _275
REMARK  109  A    between atoms: _275  and  _276
REMARK  110  A    between atoms: _278  and  _280
REMARK  111  A    between atoms: _280  and  _281
REMARK  112  A    between atoms: _283  and  _285
REMARK  113  A    between atoms: _285  and  _286
REMARK  114  A    between atoms: _285  and  _288
REMARK  115  A    between atoms: _288  and  _289
REMARK  116  A    between atoms: _292  and  _294
REMARK  117  A    between atoms: _294  and  _295
REMARK  118  A    between atoms: _298  and  _300
REMARK  119  A    between atoms: _300  and  _301
REMARK  120  A    between atoms: _300  and  _303
REMARK  121  A    between atoms: _303  and  _304
REMARK  122  A    between atoms: _309  and  _310
REMARK  123  A    between atoms: _312  and  _314
REMARK  124  A    between atoms: _314  and  _315
REMARK  125  A    between atoms: _314  and  _317
REMARK  126  A    between atoms: _317  and  _318
REMARK  127  A    between atoms: _321  and  _323
REMARK  128  A    between atoms: _323  and  _324
REMARK  129  A    between atoms: _323  and  _326
REMARK  130  A    between atoms: _326  and  _327
REMARK  131  A    between atoms: _330  and  _332
REMARK  132  A    between atoms: _332  and  _333
REMARK  133  A    between atoms: _332  and  _335
REMARK  134  A    between atoms: _335  and  _336
REMARK  135  A    between atoms: _336  and  _337
REMARK  136  A    between atoms: _337  and  _338
REMARK  137  A    between atoms: _338  and  _339
REMARK  138  A    between atoms: _343  and  _345
REMARK  139  A    between atoms: _345  and  _346
REMARK  140  A    between atoms: _345  and  _348
REMARK  141  A    between atoms: _348  and  _349
REMARK  142  A    between atoms: _351  and  _353
REMARK  143  A    between atoms: _353  and  _354
REMARK  144  A    between atoms: _356  and  _358
REMARK  145  A    between atoms: _358  and  _359
REMARK  146  A    between atoms: _358  and  _361
REMARK  147  A    between atoms: _361  and  _362
REMARK  148  A    between atoms: _365  and  _367
REMARK  149  A    between atoms: _367  and  _368
REMARK  150  A    between atoms: _367  and  _370
REMARK  151  A    between atoms: _370  and  _371
REMARK  152  A    between atoms: _374  and  _376
REMARK  153  A    between atoms: _376  and  _377
REMARK  154  A    between atoms: _380  and  _382
REMARK  155  A    between atoms: _382  and  _383
REMARK  156  A    between atoms: _382  and  _385
REMARK  157  A    between atoms: _385  and  _386
REMARK  158  A    between atoms: _386  and  _387
REMARK  159  A    between atoms: _387  and  _388
REMARK  160  A    between atoms: _397  and  _399
REMARK  161  A    between atoms: _399  and  _400
REMARK  162  A    between atoms: _402  and  _404
REMARK  163  A    between atoms: _404  and  _405
REMARK  164  A    between atoms: _404  and  _407
REMARK  165  A    between atoms: _407  and  _408
REMARK  166  A    between atoms: _414  and  _416
REMARK  167  A    between atoms: _416  and  _417
REMARK  168  A    between atoms: _416  and  _419
REMARK  169  A    between atoms: _419  and  _420
REMARK  170  A    between atoms: _423  and  _425
REMARK  171  A    between atoms: _425  and  _426
REMARK  172  A    between atoms: _425  and  _428
REMARK  173  A    between atoms: _428  and  _429
REMARK  174  A    between atoms: _434  and  _436
REMARK  175  A    between atoms: _436  and  _437
REMARK  176  A    between atoms: _436  and  _439
REMARK  177  A    between atoms: _439  and  _440
REMARK  178  A    between atoms: _443  and  _445
REMARK  179  A    between atoms: _445  and  _446
REMARK  180  A    between atoms: _445  and  _448
REMARK  181  A    between atoms: _448  and  _449
REMARK  182  A    between atoms: _454  and  _455
REMARK  183  A    between atoms: _457  and  _459
REMARK  184  A    between atoms: _459  and  _460
REMARK  185  A    between atoms: _459  and  _462
REMARK  186  A    between atoms: _462  and  _463
REMARK  187  A    between atoms: _466  and  _468
REMARK  188  A    between atoms: _468  and  _469
REMARK  189  A    between atoms: _468  and  _471
REMARK  190  A    between atoms: _471  and  _472
REMARK  191  A    between atoms: _472  and  _473
REMARK  192  A    between atoms: _476  and  _478
REMARK  193  A    between atoms: _478  and  _479
REMARK  194  A    between atoms: _478  and  _481
REMARK  195  A    between atoms: _481  and  _482
REMARK  196  A    between atoms: _485  and  _487
REMARK  197  A    between atoms: _487  and  _488
REMARK  198  A    between atoms: _490  and  _492
REMARK  199  A    between atoms: _492  and  _493
REMARK  200  A    between atoms: _495  and  _497
REMARK  201  A    between atoms: _497  and  _498
REMARK  202  A    between atoms: _497  and  _500
REMARK  203  A    between atoms: _500  and  _501
REMARK  204  A    between atoms: _501  and  _502
REMARK  205  A    between atoms: _507  and  _509
REMARK  206  A    between atoms: _509  and  _510
REMARK  207  A    between atoms: _513  and  _515
REMARK  208  A    between atoms: _515  and  _516
REMARK  209  A    between atoms: _515  and  _518
REMARK  210  A    between atoms: _518  and  _519
REMARK  211  A    between atoms: _522  and  _524
REMARK  212  A    between atoms: _524  and  _525
REMARK  213  A    between atoms: _524  and  _527
REMARK  214  A    between atoms: _527  and  _528
REMARK  215  A    between atoms: _528  and  _529
REMARK  216  A    between atoms: _534  and  _536
REMARK  217  A    between atoms: _536  and  _537
REMARK  218  A    between atoms: _536  and  _539
REMARK  219  A    between atoms: _539  and  _540
REMARK  220  A    between atoms: _543  and  _545
REMARK  221  A    between atoms: _545  and  _546
REMARK  222  A    between atoms: _545  and  _548
REMARK  223  A    between atoms: _548  and  _549
REMARK  224  A    between atoms: _549  and  _550
REMARK  225  A    between atoms: _550  and  _551
REMARK                            x       y       z     vdW  Elec       q    Type
REMARK                         _______ _______ _______ _____ _____    ______ ____
ROOT
ATOM      1  CA  LEU A   3       4.211  18.722  45.539  0.00  0.00    +0.149 C 
ENDROOT
BRANCH   1   4
ATOM      2  C   ALA A   2       4.574  18.615  47.950  0.00  0.00    +0.241 C 
ATOM      3  O   ALA A   2       4.513  17.376  47.971  0.00  0.00    -0.273 OA
ATOM      4  N   LEU A   3       4.565  19.329  46.815  0.00  0.00    -0.297 N 
ATOM      5  H   LEU A   3       4.816  20.338  46.846  0.00  0.00    +0.150 HD
BRANCH   2   6
ATOM      6  CA  ALA A   2       4.653  19.410  49.249  0.00  0.00    +0.149 C 
ATOM      7  CB  ALA A   2       5.875  19.007  50.096  0.00  0.00    +0.031 C 
BRANCH   6  10
ATOM      8  C   GLN A   1       2.804  20.166  50.625  0.00  0.00    +0.238 C 
ATOM      9  O   GLN A   1       3.159  21.359  50.557  0.00  0.00    -0.274 OA
ATOM     10  N   ALA A   2       3.430  19.181  49.989  0.00  0.00    -0.297 N 
ATOM     11  H   ALA A   2       3.031  18.221  50.024  0.00  0.00    +0.150 HD
BRANCH   8  12
ATOM     12  CA  GLN A   1       1.584  19.747  51.426  0.00  0.00    +0.145 C 
BRANCH  12  13
ATOM     13  N   GLN A   1       1.833  18.568  52.258  0.00  0.00    -0.238 NA
ATOM     14  H   GLN A   1       1.157  17.778  52.231  0.00  0.00    +0.142 HD
ENDBRANCH  12  13
BRANCH  12  15
ATOM     15  CB  GLN A   1       1.113  20.903  52.299  0.00  0.00    +0.036 C 
BRANCH  15  16
ATOM     16  CG  GLN A   1      -0.124  20.531  53.117  0.00  0.00    +0.087 C 
BRANCH  16  17
ATOM     17  CD  GLN A   1      -0.607  21.697  53.986  0.00  0.00    +0.219 C 
ATOM     18  OE1 GLN A   1      -0.685  21.583  55.212  0.00  0.00    -0.275 OA
ATOM     19  NE2 GLN A   1      -0.940  22.813  53.349  0.00  0.00    -0.329 N 
ATOM     20 HE21 GLN A   1      -1.282  23.636  53.885  0.00  0.00    +0.145 HD
ATOM     21 HE22 GLN A   1      -0.858  22.865  52.313  0.00  0.00    +0.145 HD
ENDBRANCH  16  17
ENDBRANCH  15  16
ENDBRANCH  12  15
ENDBRANCH   8  12
ENDBRANCH   6  10
ENDBRANCH   2   6
ENDBRANCH   1   4
BRANCH   1  22
ATOM     22  C   LEU A   3       5.397  18.497  44.616  0.00  0.00    +0.241 C 
ATOM     23  N   GLN A   4       6.579  18.271  45.206  0.00  0.00    -0.297 N 
ATOM     24  H   GLN A   4       6.676  18.328  46.240  0.00  0.00    +0.150 HD
ATOM     25  O   LEU A   3       5.262  18.473  43.390  0.00  0.00    -0.273 OA
BRANCH  23  26
ATOM     26  CA  GLN A   4       7.731  17.942  44.365  0.00  0.00    +0.149 C 
BRANCH  26  27
ATOM     27  C   GLN A   4       7.533  16.595  43.667  0.00  0.00    +0.241 C 
ATOM     28  O   GLN A   4       6.731  15.745  44.118  0.00  0.00    -0.273 OA
ATOM     29  N   THR A   5       8.275  16.407  42.572  0.00  0.00    -0.296 N 
ATOM     30  H   THR A   5       8.847  17.193  42.201  0.00  0.00    +0.150 HD
BRANCH  29  31
ATOM     31  CA  THR A   5       8.297  15.115  41.886  0.00  0.00    +0.164 C 
BRANCH  31  32
ATOM     32  CB  THR A   5       8.782  15.313  40.468  0.00  0.00    +0.136 C 
ATOM     33  CG2 THR A   5       8.798  13.979  39.724  0.00  0.00    +0.034 C 
BRANCH  32  34
ATOM     34  OG1 THR A   5       7.871  16.239  39.835  0.00  0.00    -0.382 OA
ATOM     35  HG1 THR A   5       7.877  17.096  40.330  0.00  0.00    +0.210 HD
ENDBRANCH  32  34
ENDBRANCH  31  32
BRANCH  31  36
ATOM     36  C   THR A   5       9.186  14.177  42.682  0.00  0.00    +0.229 C 
ATOM     37  O   THR A   5      10.267  14.567  43.148  0.00  0.00    -0.286 OA
ENDBRANCH  31  36
ENDBRANCH  29  31
ENDBRANCH  26  27
BRANCH  26  38
ATOM     38  CB  GLN A   4       9.024  17.882  45.206  0.00  0.00    +0.039 C 
BRANCH  38  39
ATOM     39  CG  GLN A   4       9.379  19.125  45.972  0.00  0.00    +0.087 C 
BRANCH  39  40
ATOM     40  CD  GLN A   4       8.899  19.101  47.408  0.00  0.00    +0.219 C 
ATOM     41  NE2 GLN A   4       9.487  19.943  48.262  0.00  0.00    -0.329 N 
ATOM     42 HE21 GLN A   4       9.171  19.984  49.252  0.00  0.00    +0.145 HD
ATOM     43 HE22 GLN A   4      10.261  20.557  47.937  0.00  0.00    +0.145 HD
ATOM     44  OE1 GLN A   4       7.980  18.356  47.748  0.00  0.00    -0.275 OA
ENDBRANCH  39  40
ENDBRANCH  38  39
ENDBRANCH  26  38
ENDBRANCH  23  26
ENDBRANCH   1  22
BRANCH   1  45
ATOM     45  CB  LEU A   3       3.137  19.555  44.817  0.00  0.00    +0.029 C 
BRANCH  45  46
ATOM     46  CG  LEU A   3       1.931  19.938  45.682  0.00  0.00    +0.002 C 
ATOM     47  CD2 LEU A   3       1.254  18.666  46.237  0.00  0.00    +0.000 C 
ATOM     48  CD1 LEU A   3       0.957  20.821  44.920  0.00  0.00    +0.000 C 
ENDBRANCH  45  46
ENDBRANCH   1  45
TORSDOF 20
REMARK  Name = ../refined-set-2016/4r73/4r73_pocket.pdb
REMARK  225 active torsions:
REMARK  status: ('A' for Active; 'I' for Inactive)
REMARK    1  A    between atoms: _1  and  _3
REMARK    2  A    between atoms: _3  and  _4
REMARK    3  A    between atoms: _3  and  _6
REMARK    4  A    between atoms: _8  and  _10
REMARK    5  A    between atoms: _10  and  _11
REMARK    6  A    between atoms: _10  and  _13
REMARK    7  A    between atoms: _13  and  _14
REMARK    8  A    between atoms: _16  and  _18
REMARK    9  A    between atoms: _18  and  _19
REMARK   10  A    between atoms: _22  and  _24
REMARK   11  A    between atoms: _24  and  _25
REMARK   12  A    between atoms: _24  and  _27
REMARK   13  A    between atoms: _27  and  _28
REMARK   14  A    between atoms: _31  and  _33
REMARK   15  A    between atoms: _33  and  _34
REMARK   16  A    between atoms: _33  and  _36
REMARK   17  A    between atoms: _36  and  _37
REMARK   18  A    between atoms: _42  and  _44
REMARK   19  A    between atoms: _44  and  _45
REMARK   20  A    between atoms: _44  and  _47
REMARK   21  A    between atoms: _47  and  _48
REMARK   22  A    between atoms: _48  and  _49
REMARK   23  A    between atoms: _51  and  _53
REMARK   24  A    between atoms: _53  and  _54
REMARK   25  A    between atoms: _53  and  _56
REMARK   26  A    between atoms: _56  and  _57
REMARK   27  A    between atoms: _57  and  _58
REMARK   28  A    between atoms: _58  and  _59
REMARK   29  A    between atoms: _68  and  _70
REMARK   30  A    between atoms: _70  and  _71
REMARK   31  A    between atoms: _70  and  _73
REMARK   32  A    between atoms: _73  and  _74
REMARK   33  A    between atoms: _79  and  _81
REMARK   34  A    between atoms: _81  and  _82
REMARK   35  A    between atoms: _84  and  _86
REMARK   36  A    between atoms: _86  and  _87
REMARK   37  A    between atoms: _86  and  _89
REMARK   38  A    between atoms: _89  and  _90
REMARK   39  A    between atoms: _92  and  _94
REMARK   40  A    between atoms: _94  and  _95
REMARK   41  A    between atoms: _97  and  _99
REMARK   42  A    between atoms: _99  and  _100
REMARK   43  A    between atoms: _99  and  _102
REMARK   44  A    between atoms: _102  and  _103
REMARK   45  A    between atoms: _105  and  _107
REMARK   46  A    between atoms: _107  and  _108
REMARK   47  A    between atoms: _107  and  _110
REMARK   48  A    between atoms: _110  and  _111
REMARK   49  A    between atoms: _114  and  _116
REMARK   50  A    between atoms: _116  and  _117
REMARK   51  A    between atoms: _116  and  _119
REMARK   52  A    between atoms: _119  and  _120
REMARK   53  A    between atoms: _126  and  _128
REMARK   54  A    between atoms: _128  and  _129
REMARK   55  A    between atoms: _128  and  _131
REMARK   56  A    between atoms: _131  and  _132
REMARK   57  A    between atoms: _142  and  _144
REMARK   58  A    between atoms: _144  and  _145
REMARK   59  A    between atoms: _144  and  _147
REMARK   60  A    between atoms: _147  and  _148
REMARK   61  A    between atoms: _153  and  _154
REMARK   62  A    between atoms: _156  and  _158
REMARK   63  A    between atoms: _158  and  _159
REMARK   64  A    between atoms: _161  and  _163
REMARK   65  A    between atoms: _163  and  _164
REMARK   66  A    between atoms: _166  and  _168
REMARK   67  A    between atoms: _168  and  _169
REMARK   68  A    between atoms: _168  and  _171
REMARK   69  A    between atoms: _171  and  _172
REMARK   70  A    between atoms: _175  and  _177
REMARK   71  A    between atoms: _177  and  _178
REMARK   72  A    between atoms: _177  and  _180
REMARK   73  A    between atoms: _180  and  _181
REMARK   74  A    between atoms: _185  and  _186
REMARK   75  A    between atoms: _191  and  _193
REMARK   76  A    between atoms: _193  and  _194
REMARK   77  A    between atoms: _193  and  _196
REMARK   78  A    between atoms: _196  and  _197
REMARK   79  A    between atoms: _197  and  _198
REMARK   80  A    between atoms: _203  and  _205
REMARK   81  A    between atoms: _205  and  _206
REMARK   82  A    between atoms: _205  and  _208
REMARK   83  A    between atoms: _208  and  _209
REMARK   84  A    between atoms: _214  and  _215
REMARK   85  A    between atoms: _217  and  _219
REMARK   86  A    between atoms: _219  and  _220
REMARK   87  A    between atoms: _219  and  _222
REMARK   88  A    between atoms: _222  and  _223
REMARK   89  A    between atoms: _226  and  _228
REMARK   90  A    between atoms: _228  and  _229
REMARK   91  A    between atoms: _231  and  _233
REMARK   92  A    between atoms: _233  and  _234
REMARK   93  A    between atoms: _233  and  _236
REMARK   94  A    between atoms: _236  and  _237
REMARK   95  A    between atoms: _240  and  _242
REMARK   96  A    between atoms: _242  and  _243
REMARK   97  A    between atoms: _246  and  _248
REMARK   98  A    between atoms: _248  and  _249
REMARK   99  A    between atoms: _248  and  _251
REMARK  100  A    between atoms: _251  and  _252
REMARK  101  A    between atoms: _256  and  _257
REMARK  102  A    between atoms: _262  and  _264
REMARK  103  A    between atoms: _264  and  _265
REMARK  104  A    between atoms: _264  and  _267
REMARK  105  A    between atoms: _267  and  _268
REMARK  106  A    between atoms: _270  and  _272
REMARK  107  A    between atoms: _272  and  _273
REMARK  108  A    between atoms: _272  and  _275
REMARK  109  A    between atoms: _275  and  _276
REMARK  110  A    between atoms: _278  and  _280
REMARK  111  A    between atoms: _280  and  _281
REMARK  112  A    between atoms: _283  and  _285
REMARK  113  A    between atoms: _285  and  _286
REMARK  114  A    between atoms: _285  and  _288
REMARK  115  A    between atoms: _288  and  _289
REMARK  116  A    between atoms: _292  and  _294
REMARK  117  A    between atoms: _294  and  _295
REMARK  118  A    between atoms: _298  and  _300
REMARK  119  A    between atoms: _300  and  _301
REMARK  120  A    between atoms: _300  and  _303
REMARK  121  A    between atoms: _303  and  _304
REMARK  122  A    between atoms: _309  and  _310
REMARK  123  A    between atoms: _312  and  _314
REMARK  124  A    between atoms: _314  and  _315
REMARK  125  A    between atoms: _314  and  _317
REMARK  126  A    between atoms: _317  and  _318
REMARK  127  A    between atoms: _321  and  _323
REMARK  128  A    between atoms: _323  and  _324
REMARK  129  A    between atoms: _323  and  _326
REMARK  130  A    between atoms: _326  and  _327
REMARK  131  A    between atoms: _330  and  _332
REMARK  132  A    between atoms: _332  and  _333
REMARK  133  A    between atoms: _332  and  _335
REMARK  134  A    between atoms: _335  and  _336
REMARK  135  A    between atoms: _336  and  _337
REMARK  136  A    between atoms: _337  and  _338
REMARK  137  A    between atoms: _338  and  _339
REMARK  138  A    between atoms: _343  and  _345
REMARK  139  A    between atoms: _345  and  _346
REMARK  140  A    between atoms: _345  and  _348
REMARK  141  A    between atoms: _348  and  _349
REMARK  142  A    between atoms: _351  and  _353
REMARK  143  A    between atoms: _353  and  _354
REMARK  144  A    between atoms: _356  and  _358
REMARK  145  A    between atoms: _358  and  _359
REMARK  146  A    between atoms: _358  and  _361
REMARK  147  A    between atoms: _361  and  _362
REMARK  148  A    between atoms: _365  and  _367
REMARK  149  A    between atoms: _367  and  _368
REMARK  150  A    between atoms: _367  and  _370
REMARK  151  A    between atoms: _370  and  _371
REMARK  152  A    between atoms: _374  and  _376
REMARK  153  A    between atoms: _376  and  _377
REMARK  154  A    between atoms: _380  and  _382
REMARK  155  A    between atoms: _382  and  _383
REMARK  156  A    between atoms: _382  and  _385
REMARK  157  A    between atoms: _385  and  _386
REMARK  158  A    between atoms: _386  and  _387
REMARK  159  A    between atoms: _387  and  _388
REMARK  160  A    between atoms: _397  and  _399
REMARK  161  A    between atoms: _399  and  _400
REMARK  162  A    between atoms: _402  and  _404
REMARK  163  A    between atoms: _404  and  _405
REMARK  164  A    between atoms: _404  and  _407
REMARK  165  A    between atoms: _407  and  _408
REMARK  166  A    between atoms: _414  and  _416
REMARK  167  A    between atoms: _416  and  _417
REMARK  168  A    between atoms: _416  and  _419
REMARK  169  A    between atoms: _419  and  _420
REMARK  170  A    between atoms: _423  and  _425
REMARK  171  A    between atoms: _425  and  _426
REMARK  172  A    between atoms: _425  and  _428
REMARK  173  A    between atoms: _428  and  _429
REMARK  174  A    between atoms: _434  and  _436
REMARK  175  A    between atoms: _436  and  _437
REMARK  176  A    between atoms: _436  and  _439
REMARK  177  A    between atoms: _439  and  _440
REMARK  178  A    between atoms: _443  and  _445
REMARK  179  A    between atoms: _445  and  _446
REMARK  180  A    between atoms: _445  and  _448
REMARK  181  A    between atoms: _448  and  _449
REMARK  182  A    between atoms: _454  and  _455
REMARK  183  A    between atoms: _457  and  _459
REMARK  184  A    between atoms: _459  and  _460
REMARK  185  A    between atoms: _459  and  _462
REMARK  186  A    between atoms: _462  and  _463
REMARK  187  A    between atoms: _466  and  _468
REMARK  188  A    between atoms: _468  and  _469
REMARK  189  A    between atoms: _468  and  _471
REMARK  190  A    between atoms: _471  and  _472
REMARK  191  A    between atoms: _472  and  _473
REMARK  192  A    between atoms: _476  and  _478
REMARK  193  A    between atoms: _478  and  _479
REMARK  194  A    between atoms: _478  and  _481
REMARK  195  A    between atoms: _481  and  _482
REMARK  196  A    between atoms: _485  and  _487
REMARK  197  A    between atoms: _487  and  _488
REMARK  198  A    between atoms: _490  and  _492
REMARK  199  A    between atoms: _492  and  _493
REMARK  200  A    between atoms: _495  and  _497
REMARK  201  A    between atoms: _497  and  _498
REMARK  202  A    between atoms: _497  and  _500
REMARK  203  A    between atoms: _500  and  _501
REMARK  204  A    between atoms: _501  and  _502
REMARK  205  A    between atoms: _507  and  _509
REMARK  206  A    between atoms: _509  and  _510
REMARK  207  A    between atoms: _513  and  _515
REMARK  208  A    between atoms: _515  and  _516
REMARK  209  A    between atoms: _515  and  _518
REMARK  210  A    between atoms: _518  and  _519
REMARK  211  A    between atoms: _522  and  _524
REMARK  212  A    between atoms: _524  and  _525
REMARK  213  A    between atoms: _524  and  _527
REMARK  214  A    between atoms: _527  and  _528
REMARK  215  A    between atoms: _528  and  _529
REMARK  216  A    between atoms: _534  and  _536
REMARK  217  A    between atoms: _536  and  _537
REMARK  218  A    between atoms: _536  and  _539
REMARK  219  A    between atoms: _539  and  _540
REMARK  220  A    between atoms: _543  and  _545
REMARK  221  A    between atoms: _545  and  _546
REMARK  222  A    between atoms: _545  and  _548
REMARK  223  A    between atoms: _548  and  _549
REMARK  224  A    between atoms: _549  and  _550
REMARK  225  A    between atoms: _550  and  _551
REMARK                            x       y       z     vdW  Elec       q    Type
REMARK                         _______ _______ _______ _____ _____    ______ ____
ROOT
ATOM      1  NE  ARG A   1      25.810  26.526  47.808  0.00  0.00    -0.265 N 
ATOM      2  CZ  ARG A   1      26.133  27.219  48.879  0.00  0.00    +0.342 C 
ATOM      3  NH2 ARG A   1      25.192  27.787  49.598  0.00  0.00    -0.292 N 
ATOM      4 HH21 ARG A   1      25.444  28.335  50.445  0.00  0.00    +0.255 HD
ATOM      5 HH22 ARG A   1      24.195  27.688  49.320  0.00  0.00    +0.255 HD
ATOM      6  NH1 ARG A   1      27.402  27.343  49.214  0.00  0.00    -0.292 N 
ATOM      7 HH11 ARG A   1      27.666  27.889  50.059  0.00  0.00    +0.255 HD
ATOM      8 HH12 ARG A   1      28.139  26.895  48.633  0.00  0.00    +0.255 HD
ATOM      9  HE  ARG A   1      24.800  26.437  47.575  0.00  0.00    +0.259 HD
ENDROOT
BRANCH   1  10
ATOM     10  CD  ARG A   1      26.763  25.880  46.933  0.00  0.00    +0.174 C 
BRANCH  10  11
ATOM     11  CG  ARG A   1      27.265  26.852  45.919  0.00  0.00    +0.045 C 
BRANCH  11  12
ATOM     12  CB  ARG A   1      28.784  26.886  45.877  0.00  0.00    +0.029 C 
BRANCH  12  13
ATOM     13  CA  ARG A   1      29.271  27.878  44.817  0.00  0.00    +0.133 C 
BRANCH  13  14
ATOM     14  N   ARG A   1      30.175  27.247  43.875  0.00  0.00    -0.239 NA
ATOM     15  H   ARG A   1      30.592  26.314  44.068  0.00  0.00    +0.142 HD
ENDBRANCH  13  14
BRANCH  13  16
ATOM     16  C   ARG A   1      29.848  29.130  45.490  0.00  0.00    +0.224 C 
ATOM     17  O   ARG A   1      29.172  30.146  45.508  0.00  0.00    -0.287 OA
ENDBRANCH  13  16
ENDBRANCH  12  13
ENDBRANCH  11  12
ENDBRANCH  10  11
ENDBRANCH   1  10
TORSDOF 6
REMARK  Name = ../refined-set-2016/4r73/4r73_pocket.pdb
REMARK  225 active torsions:
REMARK  status: ('A' for Active; 'I' for Inactive)
REMARK    1  A    between atoms: _1  and  _3
REMARK    2  A    between atoms: _3  and  _4
REMARK    3  A    between atoms: _3  and  _6
REMARK    4  A    between atoms: _8  and  _10
REMARK    5  A    between atoms: _10  and  _11
REMARK    6  A    between atoms: _10  and  _13
REMARK    7  A    between atoms: _13  and  _14
REMARK    8  A    between atoms: _16  and  _18
REMARK    9  A    between atoms: _18  and  _19
REMARK   10  A    between atoms: _22  and  _24
REMARK   11  A    between atoms: _24  and  _25
REMARK   12  A    between atoms: _24  and  _27
REMARK   13  A    between atoms: _27  and  _28
REMARK   14  A    between atoms: _31  and  _33
REMARK   15  A    between atoms: _33  and  _34
REMARK   16  A    between atoms: _33  and  _36
REMARK   17  A    between atoms: _36  and  _37
REMARK   18  A    between atoms: _42  and  _44
REMARK   19  A    between atoms: _44  and  _45
REMARK   20  A    between atoms: _44  and  _47
REMARK   21  A    between atoms: _47  and  _48
REMARK   22  A    between atoms: _48  and  _49
REMARK   23  A    between atoms: _51  and  _53
REMARK   24  A    between atoms: _53  and  _54
REMARK   25  A    between atoms: _53  and  _56
REMARK   26  A    between atoms: _56  and  _57
REMARK   27  A    between atoms: _57  and  _58
REMARK   28  A    between atoms: _58  and  _59
REMARK   29  A    between atoms: _68  and  _70
REMARK   30  A    between atoms: _70  and  _71
REMARK   31  A    between atoms: _70  and  _73
REMARK   32  A    between atoms: _73  and  _74
REMARK   33  A    between atoms: _79  and  _81
REMARK   34  A    between atoms: _81  and  _82
REMARK   35  A    between atoms: _84  and  _86
REMARK   36  A    between atoms: _86  and  _87
REMARK   37  A    between atoms: _86  and  _89
REMARK   38  A    between atoms: _89  and  _90
REMARK   39  A    between atoms: _92  and  _94
REMARK   40  A    between atoms: _94  and  _95
REMARK   41  A    between atoms: _97  and  _99
REMARK   42  A    between atoms: _99  and  _100
REMARK   43  A    between atoms: _99  and  _102
REMARK   44  A    between atoms: _102  and  _103
REMARK   45  A    between atoms: _105  and  _107
REMARK   46  A    between atoms: _107  and  _108
REMARK   47  A    between atoms: _107  and  _110
REMARK   48  A    between atoms: _110  and  _111
REMARK   49  A    between atoms: _114  and  _116
REMARK   50  A    between atoms: _116  and  _117
REMARK   51  A    between atoms: _116  and  _119
REMARK   52  A    between atoms: _119  and  _120
REMARK   53  A    between atoms: _126  and  _128
REMARK   54  A    between atoms: _128  and  _129
REMARK   55  A    between atoms: _128  and  _131
REMARK   56  A    between atoms: _131  and  _132
REMARK   57  A    between atoms: _142  and  _144
REMARK   58  A    between atoms: _144  and  _145
REMARK   59  A    between atoms: _144  and  _147
REMARK   60  A    between atoms: _147  and  _148
REMARK   61  A    between atoms: _153  and  _154
REMARK   62  A    between atoms: _156  and  _158
REMARK   63  A    between atoms: _158  and  _159
REMARK   64  A    between atoms: _161  and  _163
REMARK   65  A    between atoms: _163  and  _164
REMARK   66  A    between atoms: _166  and  _168
REMARK   67  A    between atoms: _168  and  _169
REMARK   68  A    between atoms: _168  and  _171
REMARK   69  A    between atoms: _171  and  _172
REMARK   70  A    between atoms: _175  and  _177
REMARK   71  A    between atoms: _177  and  _178
REMARK   72  A    between atoms: _177  and  _180
REMARK   73  A    between atoms: _180  and  _181
REMARK   74  A    between atoms: _185  and  _186
REMARK   75  A    between atoms: _191  and  _193
REMARK   76  A    between atoms: _193  and  _194
REMARK   77  A    between atoms: _193  and  _196
REMARK   78  A    between atoms: _196  and  _197
REMARK   79  A    between atoms: _197  and  _198
REMARK   80  A    between atoms: _203  and  _205
REMARK   81  A    between atoms: _205  and  _206
REMARK   82  A    between atoms: _205  and  _208
REMARK   83  A    between atoms: _208  and  _209
REMARK   84  A    between atoms: _214  and  _215
REMARK   85  A    between atoms: _217  and  _219
REMARK   86  A    between atoms: _219  and  _220
REMARK   87  A    between atoms: _219  and  _222
REMARK   88  A    between atoms: _222  and  _223
REMARK   89  A    between atoms: _226  and  _228
REMARK   90  A    between atoms: _228  and  _229
REMARK   91  A    between atoms: _231  and  _233
REMARK   92  A    between atoms: _233  and  _234
REMARK   93  A    between atoms: _233  and  _236
REMARK   94  A    between atoms: _236  and  _237
REMARK   95  A    between atoms: _240  and  _242
REMARK   96  A    between atoms: _242  and  _243
REMARK   97  A    between atoms: _246  and  _248
REMARK   98  A    between atoms: _248  and  _249
REMARK   99  A    between atoms: _248  and  _251
REMARK  100  A    between atoms: _251  and  _252
REMARK  101  A    between atoms: _256  and  _257
REMARK  102  A    between atoms: _262  and  _264
REMARK  103  A    between atoms: _264  and  _265
REMARK  104  A    between atoms: _264  and  _267
REMARK  105  A    between atoms: _267  and  _268
REMARK  106  A    between atoms: _270  and  _272
REMARK  107  A    between atoms: _272  and  _273
REMARK  108  A    between atoms: _272  and  _275
REMARK  109  A    between atoms: _275  and  _276
REMARK  110  A    between atoms: _278  and  _280
REMARK  111  A    between atoms: _280  and  _281
REMARK  112  A    between atoms: _283  and  _285
REMARK  113  A    between atoms: _285  and  _286
REMARK  114  A    between atoms: _285  and  _288
REMARK  115  A    between atoms: _288  and  _289
REMARK  116  A    between atoms: _292  and  _294
REMARK  117  A    between atoms: _294  and  _295
REMARK  118  A    between atoms: _298  and  _300
REMARK  119  A    between atoms: _300  and  _301
REMARK  120  A    between atoms: _300  and  _303
REMARK  121  A    between atoms: _303  and  _304
REMARK  122  A    between atoms: _309  and  _310
REMARK  123  A    between atoms: _312  and  _314
REMARK  124  A    between atoms: _314  and  _315
REMARK  125  A    between atoms: _314  and  _317
REMARK  126  A    between atoms: _317  and  _318
REMARK  127  A    between atoms: _321  and  _323
REMARK  128  A    between atoms: _323  and  _324
REMARK  129  A    between atoms: _323  and  _326
REMARK  130  A    between atoms: _326  and  _327
REMARK  131  A    between atoms: _330  and  _332
REMARK  132  A    between atoms: _332  and  _333
REMARK  133  A    between atoms: _332  and  _335
REMARK  134  A    between atoms: _335  and  _336
REMARK  135  A    between atoms: _336  and  _337
REMARK  136  A    between atoms: _337  and  _338
REMARK  137  A    between atoms: _338  and  _339
REMARK  138  A    between atoms: _343  and  _345
REMARK  139  A    between atoms: _345  and  _346
REMARK  140  A    between atoms: _345  and  _348
REMARK  141  A    between atoms: _348  and  _349
REMARK  142  A    between atoms: _351  and  _353
REMARK  143  A    between atoms: _353  and  _354
REMARK  144  A    between atoms: _356  and  _358
REMARK  145  A    between atoms: _358  and  _359
REMARK  146  A    between atoms: _358  and  _361
REMARK  147  A    between atoms: _361  and  _362
REMARK  148  A    between atoms: _365  and  _367
REMARK  149  A    between atoms: _367  and  _368
REMARK  150  A    between atoms: _367  and  _370
REMARK  151  A    between atoms: _370  and  _371
REMARK  152  A    between atoms: _374  and  _376
REMARK  153  A    between atoms: _376  and  _377
REMARK  154  A    between atoms: _380  and  _382
REMARK  155  A    between atoms: _382  and  _383
REMARK  156  A    between atoms: _382  and  _385
REMARK  157  A    between atoms: _385  and  _386
REMARK  158  A    between atoms: _386  and  _387
REMARK  159  A    between atoms: _387  and  _388
REMARK  160  A    between atoms: _397  and  _399
REMARK  161  A    between atoms: _399  and  _400
REMARK  162  A    between atoms: _402  and  _404
REMARK  163  A    between atoms: _404  and  _405
REMARK  164  A    between atoms: _404  and  _407
REMARK  165  A    between atoms: _407  and  _408
REMARK  166  A    between atoms: _414  and  _416
REMARK  167  A    between atoms: _416  and  _417
REMARK  168  A    between atoms: _416  and  _419
REMARK  169  A    between atoms: _419  and  _420
REMARK  170  A    between atoms: _423  and  _425
REMARK  171  A    between atoms: _425  and  _426
REMARK  172  A    between atoms: _425  and  _428
REMARK  173  A    between atoms: _428  and  _429
REMARK  174  A    between atoms: _434  and  _436
REMARK  175  A    between atoms: _436  and  _437
REMARK  176  A    between atoms: _436  and  _439
REMARK  177  A    between atoms: _439  and  _440
REMARK  178  A    between atoms: _443  and  _445
REMARK  179  A    between atoms: _445  and  _446
REMARK  180  A    between atoms: _445  and  _448
REMARK  181  A    between atoms: _448  and  _449
REMARK  182  A    between atoms: _454  and  _455
REMARK  183  A    between atoms: _457  and  _459
REMARK  184  A    between atoms: _459  and  _460
REMARK  185  A    between atoms: _459  and  _462
REMARK  186  A    between atoms: _462  and  _463
REMARK  187  A    between atoms: _466  and  _468
REMARK  188  A    between atoms: _468  and  _469
REMARK  189  A    between atoms: _468  and  _471
REMARK  190  A    between atoms: _471  and  _472
REMARK  191  A    between atoms: _472  and  _473
REMARK  192  A    between atoms: _476  and  _478
REMARK  193  A    between atoms: _478  and  _479
REMARK  194  A    between atoms: _478  and  _481
REMARK  195  A    between atoms: _481  and  _482
REMARK  196  A    between atoms: _485  and  _487
REMARK  197  A    between atoms: _487  and  _488
REMARK  198  A    between atoms: _490  and  _492
REMARK  199  A    between atoms: _492  and  _493
REMARK  200  A    between atoms: _495  and  _497
REMARK  201  A    between atoms: _497  and  _498
REMARK  202  A    between atoms: _497  and  _500
REMARK  203  A    between atoms: _500  and  _501
REMARK  204  A    between atoms: _501  and  _502
REMARK  205  A    between atoms: _507  and  _509
REMARK  206  A    between atoms: _509  and  _510
REMARK  207  A    between atoms: _513  and  _515
REMARK  208  A    between atoms: _515  and  _516
REMARK  209  A    between atoms: _515  and  _518
REMARK  210  A    between atoms: _518  and  _519
REMARK  211  A    between atoms: _522  and  _524
REMARK  212  A    between atoms: _524  and  _525
REMARK  213  A    between atoms: _524  and  _527
REMARK  214  A    between atoms: _527  and  _528
REMARK  215  A    between atoms: _528  and  _529
REMARK  216  A    between atoms: _534  and  _536
REMARK  217  A    between atoms: _536  and  _537
REMARK  218  A    between atoms: _536  and  _539
REMARK  219  A    between atoms: _539  and  _540
REMARK  220  A    between atoms: _543  and  _545
REMARK  221  A    between atoms: _545  and  _546
REMARK  222  A    between atoms: _545  and  _548
REMARK  223  A    between atoms: _548  and  _549
REMARK  224  A    between atoms: _549  and  _550
REMARK  225  A    between atoms: _550  and  _551
REMARK                            x       y       z     vdW  Elec       q    Type
REMARK                         _______ _______ _______ _____ _____    ______ ____
ROOT
ATOM      1  O   HOH     1       9.965  28.213  45.204  0.00  0.00    +0.000 OA
ENDROOT
TORSDOF 0
REMARK  Name = ../refined-set-2016/4r73/4r73_pocket.pdb
REMARK  225 active torsions:
REMARK  status: ('A' for Active; 'I' for Inactive)
REMARK    1  A    between atoms: _1  and  _3
REMARK    2  A    between atoms: _3  and  _4
REMARK    3  A    between atoms: _3  and  _6
REMARK    4  A    between atoms: _8  and  _10
REMARK    5  A    between atoms: _10  and  _11
REMARK    6  A    between atoms: _10  and  _13
REMARK    7  A    between atoms: _13  and  _14
REMARK    8  A    between atoms: _16  and  _18
REMARK    9  A    between atoms: _18  and  _19
REMARK   10  A    between atoms: _22  and  _24
REMARK   11  A    between atoms: _24  and  _25
REMARK   12  A    between atoms: _24  and  _27
REMARK   13  A    between atoms: _27  and  _28
REMARK   14  A    between atoms: _31  and  _33
REMARK   15  A    between atoms: _33  and  _34
REMARK   16  A    between atoms: _33  and  _36
REMARK   17  A    between atoms: _36  and  _37
REMARK   18  A    between atoms: _42  and  _44
REMARK   19  A    between atoms: _44  and  _45
REMARK   20  A    between atoms: _44  and  _47
REMARK   21  A    between atoms: _47  and  _48
REMARK   22  A    between atoms: _48  and  _49
REMARK   23  A    between atoms: _51  and  _53
REMARK   24  A    between atoms: _53  and  _54
REMARK   25  A    between atoms: _53  and  _56
REMARK   26  A    between atoms: _56  and  _57
REMARK   27  A    between atoms: _57  and  _58
REMARK   28  A    between atoms: _58  and  _59
REMARK   29  A    between atoms: _68  and  _70
REMARK   30  A    between atoms: _70  and  _71
REMARK   31  A    between atoms: _70  and  _73
REMARK   32  A    between atoms: _73  and  _74
REMARK   33  A    between atoms: _79  and  _81
REMARK   34  A    between atoms: _81  and  _82
REMARK   35  A    between atoms: _84  and  _86
REMARK   36  A    between atoms: _86  and  _87
REMARK   37  A    between atoms: _86  and  _89
REMARK   38  A    between atoms: _89  and  _90
REMARK   39  A    between atoms: _92  and  _94
REMARK   40  A    between atoms: _94  and  _95
REMARK   41  A    between atoms: _97  and  _99
REMARK   42  A    between atoms: _99  and  _100
REMARK   43  A    between atoms: _99  and  _102
REMARK   44  A    between atoms: _102  and  _103
REMARK   45  A    between atoms: _105  and  _107
REMARK   46  A    between atoms: _107  and  _108
REMARK   47  A    between atoms: _107  and  _110
REMARK   48  A    between atoms: _110  and  _111
REMARK   49  A    between atoms: _114  and  _116
REMARK   50  A    between atoms: _116  and  _117
REMARK   51  A    between atoms: _116  and  _119
REMARK   52  A    between atoms: _119  and  _120
REMARK   53  A    between atoms: _126  and  _128
REMARK   54  A    between atoms: _128  and  _129
REMARK   55  A    between atoms: _128  and  _131
REMARK   56  A    between atoms: _131  and  _132
REMARK   57  A    between atoms: _142  and  _144
REMARK   58  A    between atoms: _144  and  _145
REMARK   59  A    between atoms: _144  and  _147
REMARK   60  A    between atoms: _147  and  _148
REMARK   61  A    between atoms: _153  and  _154
REMARK   62  A    between atoms: _156  and  _158
REMARK   63  A    between atoms: _158  and  _159
REMARK   64  A    between atoms: _161  and  _163
REMARK   65  A    between atoms: _163  and  _164
REMARK   66  A    between atoms: _166  and  _168
REMARK   67  A    between atoms: _168  and  _169
REMARK   68  A    between atoms: _168  and  _171
REMARK   69  A    between atoms: _171  and  _172
REMARK   70  A    between atoms: _175  and  _177
REMARK   71  A    between atoms: _177  and  _178
REMARK   72  A    between atoms: _177  and  _180
REMARK   73  A    between atoms: _180  and  _181
REMARK   74  A    between atoms: _185  and  _186
REMARK   75  A    between atoms: _191  and  _193
REMARK   76  A    between atoms: _193  and  _194
REMARK   77  A    between atoms: _193  and  _196
REMARK   78  A    between atoms: _196  and  _197
REMARK   79  A    between atoms: _197  and  _198
REMARK   80  A    between atoms: _203  and  _205
REMARK   81  A    between atoms: _205  and  _206
REMARK   82  A    between atoms: _205  and  _208
REMARK   83  A    between atoms: _208  and  _209
REMARK   84  A    between atoms: _214  and  _215
REMARK   85  A    between atoms: _217  and  _219
REMARK   86  A    between atoms: _219  and  _220
REMARK   87  A    between atoms: _219  and  _222
REMARK   88  A    between atoms: _222  and  _223
REMARK   89  A    between atoms: _226  and  _228
REMARK   90  A    between atoms: _228  and  _229
REMARK   91  A    between atoms: _231  and  _233
REMARK   92  A    between atoms: _233  and  _234
REMARK   93  A    between atoms: _233  and  _236
REMARK   94  A    between atoms: _236  and  _237
REMARK   95  A    between atoms: _240  and  _242
REMARK   96  A    between atoms: _242  and  _243
REMARK   97  A    between atoms: _246  and  _248
REMARK   98  A    between atoms: _248  and  _249
REMARK   99  A    between atoms: _248  and  _251
REMARK  100  A    between atoms: _251  and  _252
REMARK  101  A    between atoms: _256  and  _257
REMARK  102  A    between atoms: _262  and  _264
REMARK  103  A    between atoms: _264  and  _265
REMARK  104  A    between atoms: _264  and  _267
REMARK  105  A    between atoms: _267  and  _268
REMARK  106  A    between atoms: _270  and  _272
REMARK  107  A    between atoms: _272  and  _273
REMARK  108  A    between atoms: _272  and  _275
REMARK  109  A    between atoms: _275  and  _276
REMARK  110  A    between atoms: _278  and  _280
REMARK  111  A    between atoms: _280  and  _281
REMARK  112  A    between atoms: _283  and  _285
REMARK  113  A    between atoms: _285  and  _286
REMARK  114  A    between atoms: _285  and  _288
REMARK  115  A    between atoms: _288  and  _289
REMARK  116  A    between atoms: _292  and  _294
REMARK  117  A    between atoms: _294  and  _295
REMARK  118  A    between atoms: _298  and  _300
REMARK  119  A    between atoms: _300  and  _301
REMARK  120  A    between atoms: _300  and  _303
REMARK  121  A    between atoms: _303  and  _304
REMARK  122  A    between atoms: _309  and  _310
REMARK  123  A    between atoms: _312  and  _314
REMARK  124  A    between atoms: _314  and  _315
REMARK  125  A    between atoms: _314  and  _317
REMARK  126  A    between atoms: _317  and  _318
REMARK  127  A    between atoms: _321  and  _323
REMARK  128  A    between atoms: _323  and  _324
REMARK  129  A    between atoms: _323  and  _326
REMARK  130  A    between atoms: _326  and  _327
REMARK  131  A    between atoms: _330  and  _332
REMARK  132  A    between atoms: _332  and  _333
REMARK  133  A    between atoms: _332  and  _335
REMARK  134  A    between atoms: _335  and  _336
REMARK  135  A    between atoms: _336  and  _337
REMARK  136  A    between atoms: _337  and  _338
REMARK  137  A    between atoms: _338  and  _339
REMARK  138  A    between atoms: _343  and  _345
REMARK  139  A    between atoms: _345  and  _346
REMARK  140  A    between atoms: _345  and  _348
REMARK  141  A    between atoms: _348  and  _349
REMARK  142  A    between atoms: _351  and  _353
REMARK  143  A    between atoms: _353  and  _354
REMARK  144  A    between atoms: _356  and  _358
REMARK  145  A    between atoms: _358  and  _359
REMARK  146  A    between atoms: _358  and  _361
REMARK  147  A    between atoms: _361  and  _362
REMARK  148  A    between atoms: _365  and  _367
REMARK  149  A    between atoms: _367  and  _368
REMARK  150  A    between atoms: _367  and  _370
REMARK  151  A    between atoms: _370  and  _371
REMARK  152  A    between atoms: _374  and  _376
REMARK  153  A    between atoms: _376  and  _377
REMARK  154  A    between atoms: _380  and  _382
REMARK  155  A    between atoms: _382  and  _383
REMARK  156  A    between atoms: _382  and  _385
REMARK  157  A    between atoms: _385  and  _386
REMARK  158  A    between atoms: _386  and  _387
REMARK  159  A    between atoms: _387  and  _388
REMARK  160  A    between atoms: _397  and  _399
REMARK  161  A    between atoms: _399  and  _400
REMARK  162  A    between atoms: _402  and  _404
REMARK  163  A    between atoms: _404  and  _405
REMARK  164  A    between atoms: _404  and  _407
REMARK  165  A    between atoms: _407  and  _408
REMARK  166  A    between atoms: _414  and  _416
REMARK  167  A    between atoms: _416  and  _417
REMARK  168  A    between atoms: _416  and  _419
REMARK  169  A    between atoms: _419  and  _420
REMARK  170  A    between atoms: _423  and  _425
REMARK  171  A    between atoms: _425  and  _426
REMARK  172  A    between atoms: _425  and  _428
REMARK  173  A    between atoms: _428  and  _429
REMARK  174  A    between atoms: _434  and  _436
REMARK  175  A    between atoms: _436  and  _437
REMARK  176  A    between atoms: _436  and  _439
REMARK  177  A    between atoms: _439  and  _440
REMARK  178  A    between atoms: _443  and  _445
REMARK  179  A    between atoms: _445  and  _446
REMARK  180  A    between atoms: _445  and  _448
REMARK  181  A    between atoms: _448  and  _449
REMARK  182  A    between atoms: _454  and  _455
REMARK  183  A    between atoms: _457  and  _459
REMARK  184  A    between atoms: _459  and  _460
REMARK  185  A    between atoms: _459  and  _462
REMARK  186  A    between atoms: _462  and  _463
REMARK  187  A    between atoms: _466  and  _468
REMARK  188  A    between atoms: _468  and  _469
REMARK  189  A    between atoms: _468  and  _471
REMARK  190  A    between atoms: _471  and  _472
REMARK  191  A    between atoms: _472  and  _473
REMARK  192  A    between atoms: _476  and  _478
REMARK  193  A    between atoms: _478  and  _479
REMARK  194  A    between atoms: _478  and  _481
REMARK  195  A    between atoms: _481  and  _482
REMARK  196  A    between atoms: _485  and  _487
REMARK  197  A    between atoms: _487  and  _488
REMARK  198  A    between atoms: _490  and  _492
REMARK  199  A    between atoms: _492  and  _493
REMARK  200  A    between atoms: _495  and  _497
REMARK  201  A    between atoms: _497  and  _498
REMARK  202  A    between atoms: _497  and  _500
REMARK  203  A    between atoms: _500  and  _501
REMARK  204  A    between atoms: _501  and  _502
REMARK  205  A    between atoms: _507  and  _509
REMARK  206  A    between atoms: _509  and  _510
REMARK  207  A    between atoms: _513  and  _515
REMARK  208  A    between atoms: _515  and  _516
REMARK  209  A    between atoms: _515  and  _518
REMARK  210  A    between atoms: _518  and  _519
REMARK  211  A    between atoms: _522  and  _524
REMARK  212  A    between atoms: _524  and  _525
REMARK  213  A    between atoms: _524  and  _527
REMARK  214  A    between atoms: _527  and  _528
REMARK  215  A    between atoms: _528  and  _529
REMARK  216  A    between atoms: _534  and  _536
REMARK  217  A    between atoms: _536  and  _537
REMARK  218  A    between atoms: _536  and  _539
REMARK  219  A    between atoms: _539  and  _540
REMARK  220  A    between atoms: _543  and  _545
REMARK  221  A    between atoms: _545  and  _546
REMARK  222  A    between atoms: _545  and  _548
REMARK  223  A    between atoms: _548  and  _549
REMARK  224  A    between atoms: _549  and  _550
REMARK  225  A    between atoms: _550  and  _551
REMARK                            x       y       z     vdW  Elec       q    Type
REMARK                         _______ _______ _______ _____ _____    ______ ____
ROOT
ATOM      1  O   HOH     1      19.773  21.534  51.282  0.00  0.00    +0.000 OA
ENDROOT
TORSDOF 0
REMARK  Name = ../refined-set-2016/4r73/4r73_pocket.pdb
REMARK  225 active torsions:
REMARK  status: ('A' for Active; 'I' for Inactive)
REMARK    1  A    between atoms: _1  and  _3
REMARK    2  A    between atoms: _3  and  _4
REMARK    3  A    between atoms: _3  and  _6
REMARK    4  A    between atoms: _8  and  _10
REMARK    5  A    between atoms: _10  and  _11
REMARK    6  A    between atoms: _10  and  _13
REMARK    7  A    between atoms: _13  and  _14
REMARK    8  A    between atoms: _16  and  _18
REMARK    9  A    between atoms: _18  and  _19
REMARK   10  A    between atoms: _22  and  _24
REMARK   11  A    between atoms: _24  and  _25
REMARK   12  A    between atoms: _24  and  _27
REMARK   13  A    between atoms: _27  and  _28
REMARK   14  A    between atoms: _31  and  _33
REMARK   15  A    between atoms: _33  and  _34
REMARK   16  A    between atoms: _33  and  _36
REMARK   17  A    between atoms: _36  and  _37
REMARK   18  A    between atoms: _42  and  _44
REMARK   19  A    between atoms: _44  and  _45
REMARK   20  A    between atoms: _44  and  _47
REMARK   21  A    between atoms: _47  and  _48
REMARK   22  A    between atoms: _48  and  _49
REMARK   23  A    between atoms: _51  and  _53
REMARK   24  A    between atoms: _53  and  _54
REMARK   25  A    between atoms: _53  and  _56
REMARK   26  A    between atoms: _56  and  _57
REMARK   27  A    between atoms: _57  and  _58
REMARK   28  A    between atoms: _58  and  _59
REMARK   29  A    between atoms: _68  and  _70
REMARK   30  A    between atoms: _70  and  _71
REMARK   31  A    between atoms: _70  and  _73
REMARK   32  A    between atoms: _73  and  _74
REMARK   33  A    between atoms: _79  and  _81
REMARK   34  A    between atoms: _81  and  _82
REMARK   35  A    between atoms: _84  and  _86
REMARK   36  A    between atoms: _86  and  _87
REMARK   37  A    between atoms: _86  and  _89
REMARK   38  A    between atoms: _89  and  _90
REMARK   39  A    between atoms: _92  and  _94
REMARK   40  A    between atoms: _94  and  _95
REMARK   41  A    between atoms: _97  and  _99
REMARK   42  A    between atoms: _99  and  _100
REMARK   43  A    between atoms: _99  and  _102
REMARK   44  A    between atoms: _102  and  _103
REMARK   45  A    between atoms: _105  and  _107
REMARK   46  A    between atoms: _107  and  _108
REMARK   47  A    between atoms: _107  and  _110
REMARK   48  A    between atoms: _110  and  _111
REMARK   49  A    between atoms: _114  and  _116
REMARK   50  A    between atoms: _116  and  _117
REMARK   51  A    between atoms: _116  and  _119
REMARK   52  A    between atoms: _119  and  _120
REMARK   53  A    between atoms: _126  and  _128
REMARK   54  A    between atoms: _128  and  _129
REMARK   55  A    between atoms: _128  and  _131
REMARK   56  A    between atoms: _131  and  _132
REMARK   57  A    between atoms: _142  and  _144
REMARK   58  A    between atoms: _144  and  _145
REMARK   59  A    between atoms: _144  and  _147
REMARK   60  A    between atoms: _147  and  _148
REMARK   61  A    between atoms: _153  and  _154
REMARK   62  A    between atoms: _156  and  _158
REMARK   63  A    between atoms: _158  and  _159
REMARK   64  A    between atoms: _161  and  _163
REMARK   65  A    between atoms: _163  and  _164
REMARK   66  A    between atoms: _166  and  _168
REMARK   67  A    between atoms: _168  and  _169
REMARK   68  A    between atoms: _168  and  _171
REMARK   69  A    between atoms: _171  and  _172
REMARK   70  A    between atoms: _175  and  _177
REMARK   71  A    between atoms: _177  and  _178
REMARK   72  A    between atoms: _177  and  _180
REMARK   73  A    between atoms: _180  and  _181
REMARK   74  A    between atoms: _185  and  _186
REMARK   75  A    between atoms: _191  and  _193
REMARK   76  A    between atoms: _193  and  _194
REMARK   77  A    between atoms: _193  and  _196
REMARK   78  A    between atoms: _196  and  _197
REMARK   79  A    between atoms: _197  and  _198
REMARK   80  A    between atoms: _203  and  _205
REMARK   81  A    between atoms: _205  and  _206
REMARK   82  A    between atoms: _205  and  _208
REMARK   83  A    between atoms: _208  and  _209
REMARK   84  A    between atoms: _214  and  _215
REMARK   85  A    between atoms: _217  and  _219
REMARK   86  A    between atoms: _219  and  _220
REMARK   87  A    between atoms: _219  and  _222
REMARK   88  A    between atoms: _222  and  _223
REMARK   89  A    between atoms: _226  and  _228
REMARK   90  A    between atoms: _228  and  _229
REMARK   91  A    between atoms: _231  and  _233
REMARK   92  A    between atoms: _233  and  _234
REMARK   93  A    between atoms: _233  and  _236
REMARK   94  A    between atoms: _236  and  _237
REMARK   95  A    between atoms: _240  and  _242
REMARK   96  A    between atoms: _242  and  _243
REMARK   97  A    between atoms: _246  and  _248
REMARK   98  A    between atoms: _248  and  _249
REMARK   99  A    between atoms: _248  and  _251
REMARK  100  A    between atoms: _251  and  _252
REMARK  101  A    between atoms: _256  and  _257
REMARK  102  A    between atoms: _262  and  _264
REMARK  103  A    between atoms: _264  and  _265
REMARK  104  A    between atoms: _264  and  _267
REMARK  105  A    between atoms: _267  and  _268
REMARK  106  A    between atoms: _270  and  _272
REMARK  107  A    between atoms: _272  and  _273
REMARK  108  A    between atoms: _272  and  _275
REMARK  109  A    between atoms: _275  and  _276
REMARK  110  A    between atoms: _278  and  _280
REMARK  111  A    between atoms: _280  and  _281
REMARK  112  A    between atoms: _283  and  _285
REMARK  113  A    between atoms: _285  and  _286
REMARK  114  A    between atoms: _285  and  _288
REMARK  115  A    between atoms: _288  and  _289
REMARK  116  A    between atoms: _292  and  _294
REMARK  117  A    between atoms: _294  and  _295
REMARK  118  A    between atoms: _298  and  _300
REMARK  119  A    between atoms: _300  and  _301
REMARK  120  A    between atoms: _300  and  _303
REMARK  121  A    between atoms: _303  and  _304
REMARK  122  A    between atoms: _309  and  _310
REMARK  123  A    between atoms: _312  and  _314
REMARK  124  A    between atoms: _314  and  _315
REMARK  125  A    between atoms: _314  and  _317
REMARK  126  A    between atoms: _317  and  _318
REMARK  127  A    between atoms: _321  and  _323
REMARK  128  A    between atoms: _323  and  _324
REMARK  129  A    between atoms: _323  and  _326
REMARK  130  A    between atoms: _326  and  _327
REMARK  131  A    between atoms: _330  and  _332
REMARK  132  A    between atoms: _332  and  _333
REMARK  133  A    between atoms: _332  and  _335
REMARK  134  A    between atoms: _335  and  _336
REMARK  135  A    between atoms: _336  and  _337
REMARK  136  A    between atoms: _337  and  _338
REMARK  137  A    between atoms: _338  and  _339
REMARK  138  A    between atoms: _343  and  _345
REMARK  139  A    between atoms: _345  and  _346
REMARK  140  A    between atoms: _345  and  _348
REMARK  141  A    between atoms: _348  and  _349
REMARK  142  A    between atoms: _351  and  _353
REMARK  143  A    between atoms: _353  and  _354
REMARK  144  A    between atoms: _356  and  _358
REMARK  145  A    between atoms: _358  and  _359
REMARK  146  A    between atoms: _358  and  _361
REMARK  147  A    between atoms: _361  and  _362
REMARK  148  A    between atoms: _365  and  _367
REMARK  149  A    between atoms: _367  and  _368
REMARK  150  A    between atoms: _367  and  _370
REMARK  151  A    between atoms: _370  and  _371
REMARK  152  A    between atoms: _374  and  _376
REMARK  153  A    between atoms: _376  and  _377
REMARK  154  A    between atoms: _380  and  _382
REMARK  155  A    between atoms: _382  and  _383
REMARK  156  A    between atoms: _382  and  _385
REMARK  157  A    between atoms: _385  and  _386
REMARK  158  A    between atoms: _386  and  _387
REMARK  159  A    between atoms: _387  and  _388
REMARK  160  A    between atoms: _397  and  _399
REMARK  161  A    between atoms: _399  and  _400
REMARK  162  A    between atoms: _402  and  _404
REMARK  163  A    between atoms: _404  and  _405
REMARK  164  A    between atoms: _404  and  _407
REMARK  165  A    between atoms: _407  and  _408
REMARK  166  A    between atoms: _414  and  _416
REMARK  167  A    between atoms: _416  and  _417
REMARK  168  A    between atoms: _416  and  _419
REMARK  169  A    between atoms: _419  and  _420
REMARK  170  A    between atoms: _423  and  _425
REMARK  171  A    between atoms: _425  and  _426
REMARK  172  A    between atoms: _425  and  _428
REMARK  173  A    between atoms: _428  and  _429
REMARK  174  A    between atoms: _434  and  _436
REMARK  175  A    between atoms: _436  and  _437
REMARK  176  A    between atoms: _436  and  _439
REMARK  177  A    between atoms: _439  and  _440
REMARK  178  A    between atoms: _443  and  _445
REMARK  179  A    between atoms: _445  and  _446
REMARK  180  A    between atoms: _445  and  _448
REMARK  181  A    between atoms: _448  and  _449
REMARK  182  A    between atoms: _454  and  _455
REMARK  183  A    between atoms: _457  and  _459
REMARK  184  A    between atoms: _459  and  _460
REMARK  185  A    between atoms: _459  and  _462
REMARK  186  A    between atoms: _462  and  _463
REMARK  187  A    between atoms: _466  and  _468
REMARK  188  A    between atoms: _468  and  _469
REMARK  189  A    between atoms: _468  and  _471
REMARK  190  A    between atoms: _471  and  _472
REMARK  191  A    between atoms: _472  and  _473
REMARK  192  A    between atoms: _476  and  _478
REMARK  193  A    between atoms: _478  and  _479
REMARK  194  A    between atoms: _478  and  _481
REMARK  195  A    between atoms: _481  and  _482
REMARK  196  A    between atoms: _485  and  _487
REMARK  197  A    between atoms: _487  and  _488
REMARK  198  A    between atoms: _490  and  _492
REMARK  199  A    between atoms: _492  and  _493
REMARK  200  A    between atoms: _495  and  _497
REMARK  201  A    between atoms: _497  and  _498
REMARK  202  A    between atoms: _497  and  _500
REMARK  203  A    between atoms: _500  and  _501
REMARK  204  A    between atoms: _501  and  _502
REMARK  205  A    between atoms: _507  and  _509
REMARK  206  A    between atoms: _509  and  _510
REMARK  207  A    between atoms: _513  and  _515
REMARK  208  A    between atoms: _515  and  _516
REMARK  209  A    between atoms: _515  and  _518
REMARK  210  A    between atoms: _518  and  _519
REMARK  211  A    between atoms: _522  and  _524
REMARK  212  A    between atoms: _524  and  _525
REMARK  213  A    between atoms: _524  and  _527
REMARK  214  A    between atoms: _527  and  _528
REMARK  215  A    between atoms: _528  and  _529
REMARK  216  A    between atoms: _534  and  _536
REMARK  217  A    between atoms: _536  and  _537
REMARK  218  A    between atoms: _536  and  _539
REMARK  219  A    between atoms: _539  and  _540
REMARK  220  A    between atoms: _543  and  _545
REMARK  221  A    between atoms: _545  and  _546
REMARK  222  A    between atoms: _545  and  _548
REMARK  223  A    between atoms: _548  and  _549
REMARK  224  A    between atoms: _549  and  _550
REMARK  225  A    between atoms: _550  and  _551
REMARK                            x       y       z     vdW  Elec       q    Type
REMARK                         _______ _______ _______ _____ _____    ______ ____
ROOT
ATOM      1  O   HOH     1       4.460  22.222  46.971  0.00  0.00    +0.000 OA
ENDROOT
TORSDOF 0
REMARK  Name = ../refined-set-2016/4r73/4r73_pocket.pdb
REMARK  225 active torsions:
REMARK  status: ('A' for Active; 'I' for Inactive)
REMARK    1  A    between atoms: _1  and  _3
REMARK    2  A    between atoms: _3  and  _4
REMARK    3  A    between atoms: _3  and  _6
REMARK    4  A    between atoms: _8  and  _10
REMARK    5  A    between atoms: _10  and  _11
REMARK    6  A    between atoms: _10  and  _13
REMARK    7  A    between atoms: _13  and  _14
REMARK    8  A    between atoms: _16  and  _18
REMARK    9  A    between atoms: _18  and  _19
REMARK   10  A    between atoms: _22  and  _24
REMARK   11  A    between atoms: _24  and  _25
REMARK   12  A    between atoms: _24  and  _27
REMARK   13  A    between atoms: _27  and  _28
REMARK   14  A    between atoms: _31  and  _33
REMARK   15  A    between atoms: _33  and  _34
REMARK   16  A    between atoms: _33  and  _36
REMARK   17  A    between atoms: _36  and  _37
REMARK   18  A    between atoms: _42  and  _44
REMARK   19  A    between atoms: _44  and  _45
REMARK   20  A    between atoms: _44  and  _47
REMARK   21  A    between atoms: _47  and  _48
REMARK   22  A    between atoms: _48  and  _49
REMARK   23  A    between atoms: _51  and  _53
REMARK   24  A    between atoms: _53  and  _54
REMARK   25  A    between atoms: _53  and  _56
REMARK   26  A    between atoms: _56  and  _57
REMARK   27  A    between atoms: _57  and  _58
REMARK   28  A    between atoms: _58  and  _59
REMARK   29  A    between atoms: _68  and  _70
REMARK   30  A    between atoms: _70  and  _71
REMARK   31  A    between atoms: _70  and  _73
REMARK   32  A    between atoms: _73  and  _74
REMARK   33  A    between atoms: _79  and  _81
REMARK   34  A    between atoms: _81  and  _82
REMARK   35  A    between atoms: _84  and  _86
REMARK   36  A    between atoms: _86  and  _87
REMARK   37  A    between atoms: _86  and  _89
REMARK   38  A    between atoms: _89  and  _90
REMARK   39  A    between atoms: _92  and  _94
REMARK   40  A    between atoms: _94  and  _95
REMARK   41  A    between atoms: _97  and  _99
REMARK   42  A    between atoms: _99  and  _100
REMARK   43  A    between atoms: _99  and  _102
REMARK   44  A    between atoms: _102  and  _103
REMARK   45  A    between atoms: _105  and  _107
REMARK   46  A    between atoms: _107  and  _108
REMARK   47  A    between atoms: _107  and  _110
REMARK   48  A    between atoms: _110  and  _111
REMARK   49  A    between atoms: _114  and  _116
REMARK   50  A    between atoms: _116  and  _117
REMARK   51  A    between atoms: _116  and  _119
REMARK   52  A    between atoms: _119  and  _120
REMARK   53  A    between atoms: _126  and  _128
REMARK   54  A    between atoms: _128  and  _129
REMARK   55  A    between atoms: _128  and  _131
REMARK   56  A    between atoms: _131  and  _132
REMARK   57  A    between atoms: _142  and  _144
REMARK   58  A    between atoms: _144  and  _145
REMARK   59  A    between atoms: _144  and  _147
REMARK   60  A    between atoms: _147  and  _148
REMARK   61  A    between atoms: _153  and  _154
REMARK   62  A    between atoms: _156  and  _158
REMARK   63  A    between atoms: _158  and  _159
REMARK   64  A    between atoms: _161  and  _163
REMARK   65  A    between atoms: _163  and  _164
REMARK   66  A    between atoms: _166  and  _168
REMARK   67  A    between atoms: _168  and  _169
REMARK   68  A    between atoms: _168  and  _171
REMARK   69  A    between atoms: _171  and  _172
REMARK   70  A    between atoms: _175  and  _177
REMARK   71  A    between atoms: _177  and  _178
REMARK   72  A    between atoms: _177  and  _180
REMARK   73  A    between atoms: _180  and  _181
REMARK   74  A    between atoms: _185  and  _186
REMARK   75  A    between atoms: _191  and  _193
REMARK   76  A    between atoms: _193  and  _194
REMARK   77  A    between atoms: _193  and  _196
REMARK   78  A    between atoms: _196  and  _197
REMARK   79  A    between atoms: _197  and  _198
REMARK   80  A    between atoms: _203  and  _205
REMARK   81  A    between atoms: _205  and  _206
REMARK   82  A    between atoms: _205  and  _208
REMARK   83  A    between atoms: _208  and  _209
REMARK   84  A    between atoms: _214  and  _215
REMARK   85  A    between atoms: _217  and  _219
REMARK   86  A    between atoms: _219  and  _220
REMARK   87  A    between atoms: _219  and  _222
REMARK   88  A    between atoms: _222  and  _223
REMARK   89  A    between atoms: _226  and  _228
REMARK   90  A    between atoms: _228  and  _229
REMARK   91  A    between atoms: _231  and  _233
REMARK   92  A    between atoms: _233  and  _234
REMARK   93  A    between atoms: _233  and  _236
REMARK   94  A    between atoms: _236  and  _237
REMARK   95  A    between atoms: _240  and  _242
REMARK   96  A    between atoms: _242  and  _243
REMARK   97  A    between atoms: _246  and  _248
REMARK   98  A    between atoms: _248  and  _249
REMARK   99  A    between atoms: _248  and  _251
REMARK  100  A    between atoms: _251  and  _252
REMARK  101  A    between atoms: _256  and  _257
REMARK  102  A    between atoms: _262  and  _264
REMARK  103  A    between atoms: _264  and  _265
REMARK  104  A    between atoms: _264  and  _267
REMARK  105  A    between atoms: _267  and  _268
REMARK  106  A    between atoms: _270  and  _272
REMARK  107  A    between atoms: _272  and  _273
REMARK  108  A    between atoms: _272  and  _275
REMARK  109  A    between atoms: _275  and  _276
REMARK  110  A    between atoms: _278  and  _280
REMARK  111  A    between atoms: _280  and  _281
REMARK  112  A    between atoms: _283  and  _285
REMARK  113  A    between atoms: _285  and  _286
REMARK  114  A    between atoms: _285  and  _288
REMARK  115  A    between atoms: _288  and  _289
REMARK  116  A    between atoms: _292  and  _294
REMARK  117  A    between atoms: _294  and  _295
REMARK  118  A    between atoms: _298  and  _300
REMARK  119  A    between atoms: _300  and  _301
REMARK  120  A    between atoms: _300  and  _303
REMARK  121  A    between atoms: _303  and  _304
REMARK  122  A    between atoms: _309  and  _310
REMARK  123  A    between atoms: _312  and  _314
REMARK  124  A    between atoms: _314  and  _315
REMARK  125  A    between atoms: _314  and  _317
REMARK  126  A    between atoms: _317  and  _318
REMARK  127  A    between atoms: _321  and  _323
REMARK  128  A    between atoms: _323  and  _324
REMARK  129  A    between atoms: _323  and  _326
REMARK  130  A    between atoms: _326  and  _327
REMARK  131  A    between atoms: _330  and  _332
REMARK  132  A    between atoms: _332  and  _333
REMARK  133  A    between atoms: _332  and  _335
REMARK  134  A    between atoms: _335  and  _336
REMARK  135  A    between atoms: _336  and  _337
REMARK  136  A    between atoms: _337  and  _338
REMARK  137  A    between atoms: _338  and  _339
REMARK  138  A    between atoms: _343  and  _345
REMARK  139  A    between atoms: _345  and  _346
REMARK  140  A    between atoms: _345  and  _348
REMARK  141  A    between atoms: _348  and  _349
REMARK  142  A    between atoms: _351  and  _353
REMARK  143  A    between atoms: _353  and  _354
REMARK  144  A    between atoms: _356  and  _358
REMARK  145  A    between atoms: _358  and  _359
REMARK  146  A    between atoms: _358  and  _361
REMARK  147  A    between atoms: _361  and  _362
REMARK  148  A    between atoms: _365  and  _367
REMARK  149  A    between atoms: _367  and  _368
REMARK  150  A    between atoms: _367  and  _370
REMARK  151  A    between atoms: _370  and  _371
REMARK  152  A    between atoms: _374  and  _376
REMARK  153  A    between atoms: _376  and  _377
REMARK  154  A    between atoms: _380  and  _382
REMARK  155  A    between atoms: _382  and  _383
REMARK  156  A    between atoms: _382  and  _385
REMARK  157  A    between atoms: _385  and  _386
REMARK  158  A    between atoms: _386  and  _387
REMARK  159  A    between atoms: _387  and  _388
REMARK  160  A    between atoms: _397  and  _399
REMARK  161  A    between atoms: _399  and  _400
REMARK  162  A    between atoms: _402  and  _404
REMARK  163  A    between atoms: _404  and  _405
REMARK  164  A    between atoms: _404  and  _407
REMARK  165  A    between atoms: _407  and  _408
REMARK  166  A    between atoms: _414  and  _416
REMARK  167  A    between atoms: _416  and  _417
REMARK  168  A    between atoms: _416  and  _419
REMARK  169  A    between atoms: _419  and  _420
REMARK  170  A    between atoms: _423  and  _425
REMARK  171  A    between atoms: _425  and  _426
REMARK  172  A    between atoms: _425  and  _428
REMARK  173  A    between atoms: _428  and  _429
REMARK  174  A    between atoms: _434  and  _436
REMARK  175  A    between atoms: _436  and  _437
REMARK  176  A    between atoms: _436  and  _439
REMARK  177  A    between atoms: _439  and  _440
REMARK  178  A    between atoms: _443  and  _445
REMARK  179  A    between atoms: _445  and  _446
REMARK  180  A    between atoms: _445  and  _448
REMARK  181  A    between atoms: _448  and  _449
REMARK  182  A    between atoms: _454  and  _455
REMARK  183  A    between atoms: _457  and  _459
REMARK  184  A    between atoms: _459  and  _460
REMARK  185  A    between atoms: _459  and  _462
REMARK  186  A    between atoms: _462  and  _463
REMARK  187  A    between atoms: _466  and  _468
REMARK  188  A    between atoms: _468  and  _469
REMARK  189  A    between atoms: _468  and  _471
REMARK  190  A    between atoms: _471  and  _472
REMARK  191  A    between atoms: _472  and  _473
REMARK  192  A    between atoms: _476  and  _478
REMARK  193  A    between atoms: _478  and  _479
REMARK  194  A    between atoms: _478  and  _481
REMARK  195  A    between atoms: _481  and  _482
REMARK  196  A    between atoms: _485  and  _487
REMARK  197  A    between atoms: _487  and  _488
REMARK  198  A    between atoms: _490  and  _492
REMARK  199  A    between atoms: _492  and  _493
REMARK  200  A    between atoms: _495  and  _497
REMARK  201  A    between atoms: _497  and  _498
REMARK  202  A    between atoms: _497  and  _500
REMARK  203  A    between atoms: _500  and  _501
REMARK  204  A    between atoms: _501  and  _502
REMARK  205  A    between atoms: _507  and  _509
REMARK  206  A    between atoms: _509  and  _510
REMARK  207  A    between atoms: _513  and  _515
REMARK  208  A    between atoms: _515  and  _516
REMARK  209  A    between atoms: _515  and  _518
REMARK  210  A    between atoms: _518  and  _519
REMARK  211  A    between atoms: _522  and  _524
REMARK  212  A    between atoms: _524  and  _525
REMARK  213  A    between atoms: _524  and  _527
REMARK  214  A    between atoms: _527  and  _528
REMARK  215  A    between atoms: _528  and  _529
REMARK  216  A    between atoms: _534  and  _536
REMARK  217  A    between atoms: _536  and  _537
REMARK  218  A    between atoms: _536  and  _539
REMARK  219  A    between atoms: _539  and  _540
REMARK  220  A    between atoms: _543  and  _545
REMARK  221  A    between atoms: _545  and  _546
REMARK  222  A    between atoms: _545  and  _548
REMARK  223  A    between atoms: _548  and  _549
REMARK  224  A    between atoms: _549  and  _550
REMARK  225  A    between atoms: _550  and  _551
REMARK                            x       y       z     vdW  Elec       q    Type
REMARK                         _______ _______ _______ _____ _____    ______ ____
ROOT
ATOM      1  O   HOH     1      11.972  27.763  47.070  0.00  0.00    +0.000 OA
ENDROOT
TORSDOF 0
REMARK  Name = ../refined-set-2016/4r73/4r73_pocket.pdb
REMARK  225 active torsions:
REMARK  status: ('A' for Active; 'I' for Inactive)
REMARK    1  A    between atoms: _1  and  _3
REMARK    2  A    between atoms: _3  and  _4
REMARK    3  A    between atoms: _3  and  _6
REMARK    4  A    between atoms: _8  and  _10
REMARK    5  A    between atoms: _10  and  _11
REMARK    6  A    between atoms: _10  and  _13
REMARK    7  A    between atoms: _13  and  _14
REMARK    8  A    between atoms: _16  and  _18
REMARK    9  A    between atoms: _18  and  _19
REMARK   10  A    between atoms: _22  and  _24
REMARK   11  A    between atoms: _24  and  _25
REMARK   12  A    between atoms: _24  and  _27
REMARK   13  A    between atoms: _27  and  _28
REMARK   14  A    between atoms: _31  and  _33
REMARK   15  A    between atoms: _33  and  _34
REMARK   16  A    between atoms: _33  and  _36
REMARK   17  A    between atoms: _36  and  _37
REMARK   18  A    between atoms: _42  and  _44
REMARK   19  A    between atoms: _44  and  _45
REMARK   20  A    between atoms: _44  and  _47
REMARK   21  A    between atoms: _47  and  _48
REMARK   22  A    between atoms: _48  and  _49
REMARK   23  A    between atoms: _51  and  _53
REMARK   24  A    between atoms: _53  and  _54
REMARK   25  A    between atoms: _53  and  _56
REMARK   26  A    between atoms: _56  and  _57
REMARK   27  A    between atoms: _57  and  _58
REMARK   28  A    between atoms: _58  and  _59
REMARK   29  A    between atoms: _68  and  _70
REMARK   30  A    between atoms: _70  and  _71
REMARK   31  A    between atoms: _70  and  _73
REMARK   32  A    between atoms: _73  and  _74
REMARK   33  A    between atoms: _79  and  _81
REMARK   34  A    between atoms: _81  and  _82
REMARK   35  A    between atoms: _84  and  _86
REMARK   36  A    between atoms: _86  and  _87
REMARK   37  A    between atoms: _86  and  _89
REMARK   38  A    between atoms: _89  and  _90
REMARK   39  A    between atoms: _92  and  _94
REMARK   40  A    between atoms: _94  and  _95
REMARK   41  A    between atoms: _97  and  _99
REMARK   42  A    between atoms: _99  and  _100
REMARK   43  A    between atoms: _99  and  _102
REMARK   44  A    between atoms: _102  and  _103
REMARK   45  A    between atoms: _105  and  _107
REMARK   46  A    between atoms: _107  and  _108
REMARK   47  A    between atoms: _107  and  _110
REMARK   48  A    between atoms: _110  and  _111
REMARK   49  A    between atoms: _114  and  _116
REMARK   50  A    between atoms: _116  and  _117
REMARK   51  A    between atoms: _116  and  _119
REMARK   52  A    between atoms: _119  and  _120
REMARK   53  A    between atoms: _126  and  _128
REMARK   54  A    between atoms: _128  and  _129
REMARK   55  A    between atoms: _128  and  _131
REMARK   56  A    between atoms: _131  and  _132
REMARK   57  A    between atoms: _142  and  _144
REMARK   58  A    between atoms: _144  and  _145
REMARK   59  A    between atoms: _144  and  _147
REMARK   60  A    between atoms: _147  and  _148
REMARK   61  A    between atoms: _153  and  _154
REMARK   62  A    between atoms: _156  and  _158
REMARK   63  A    between atoms: _158  and  _159
REMARK   64  A    between atoms: _161  and  _163
REMARK   65  A    between atoms: _163  and  _164
REMARK   66  A    between atoms: _166  and  _168
REMARK   67  A    between atoms: _168  and  _169
REMARK   68  A    between atoms: _168  and  _171
REMARK   69  A    between atoms: _171  and  _172
REMARK   70  A    between atoms: _175  and  _177
REMARK   71  A    between atoms: _177  and  _178
REMARK   72  A    between atoms: _177  and  _180
REMARK   73  A    between atoms: _180  and  _181
REMARK   74  A    between atoms: _185  and  _186
REMARK   75  A    between atoms: _191  and  _193
REMARK   76  A    between atoms: _193  and  _194
REMARK   77  A    between atoms: _193  and  _196
REMARK   78  A    between atoms: _196  and  _197
REMARK   79  A    between atoms: _197  and  _198
REMARK   80  A    between atoms: _203  and  _205
REMARK   81  A    between atoms: _205  and  _206
REMARK   82  A    between atoms: _205  and  _208
REMARK   83  A    between atoms: _208  and  _209
REMARK   84  A    between atoms: _214  and  _215
REMARK   85  A    between atoms: _217  and  _219
REMARK   86  A    between atoms: _219  and  _220
REMARK   87  A    between atoms: _219  and  _222
REMARK   88  A    between atoms: _222  and  _223
REMARK   89  A    between atoms: _226  and  _228
REMARK   90  A    between atoms: _228  and  _229
REMARK   91  A    between atoms: _231  and  _233
REMARK   92  A    between atoms: _233  and  _234
REMARK   93  A    between atoms: _233  and  _236
REMARK   94  A    between atoms: _236  and  _237
REMARK   95  A    between atoms: _240  and  _242
REMARK   96  A    between atoms: _242  and  _243
REMARK   97  A    between atoms: _246  and  _248
REMARK   98  A    between atoms: _248  and  _249
REMARK   99  A    between atoms: _248  and  _251
REMARK  100  A    between atoms: _251  and  _252
REMARK  101  A    between atoms: _256  and  _257
REMARK  102  A    between atoms: _262  and  _264
REMARK  103  A    between atoms: _264  and  _265
REMARK  104  A    between atoms: _264  and  _267
REMARK  105  A    between atoms: _267  and  _268
REMARK  106  A    between atoms: _270  and  _272
REMARK  107  A    between atoms: _272  and  _273
REMARK  108  A    between atoms: _272  and  _275
REMARK  109  A    between atoms: _275  and  _276
REMARK  110  A    between atoms: _278  and  _280
REMARK  111  A    between atoms: _280  and  _281
REMARK  112  A    between atoms: _283  and  _285
REMARK  113  A    between atoms: _285  and  _286
REMARK  114  A    between atoms: _285  and  _288
REMARK  115  A    between atoms: _288  and  _289
REMARK  116  A    between atoms: _292  and  _294
REMARK  117  A    between atoms: _294  and  _295
REMARK  118  A    between atoms: _298  and  _300
REMARK  119  A    between atoms: _300  and  _301
REMARK  120  A    between atoms: _300  and  _303
REMARK  121  A    between atoms: _303  and  _304
REMARK  122  A    between atoms: _309  and  _310
REMARK  123  A    between atoms: _312  and  _314
REMARK  124  A    between atoms: _314  and  _315
REMARK  125  A    between atoms: _314  and  _317
REMARK  126  A    between atoms: _317  and  _318
REMARK  127  A    between atoms: _321  and  _323
REMARK  128  A    between atoms: _323  and  _324
REMARK  129  A    between atoms: _323  and  _326
REMARK  130  A    between atoms: _326  and  _327
REMARK  131  A    between atoms: _330  and  _332
REMARK  132  A    between atoms: _332  and  _333
REMARK  133  A    between atoms: _332  and  _335
REMARK  134  A    between atoms: _335  and  _336
REMARK  135  A    between atoms: _336  and  _337
REMARK  136  A    between atoms: _337  and  _338
REMARK  137  A    between atoms: _338  and  _339
REMARK  138  A    between atoms: _343  and  _345
REMARK  139  A    between atoms: _345  and  _346
REMARK  140  A    between atoms: _345  and  _348
REMARK  141  A    between atoms: _348  and  _349
REMARK  142  A    between atoms: _351  and  _353
REMARK  143  A    between atoms: _353  and  _354
REMARK  144  A    between atoms: _356  and  _358
REMARK  145  A    between atoms: _358  and  _359
REMARK  146  A    between atoms: _358  and  _361
REMARK  147  A    between atoms: _361  and  _362
REMARK  148  A    between atoms: _365  and  _367
REMARK  149  A    between atoms: _367  and  _368
REMARK  150  A    between atoms: _367  and  _370
REMARK  151  A    between atoms: _370  and  _371
REMARK  152  A    between atoms: _374  and  _376
REMARK  153  A    between atoms: _376  and  _377
REMARK  154  A    between atoms: _380  and  _382
REMARK  155  A    between atoms: _382  and  _383
REMARK  156  A    between atoms: _382  and  _385
REMARK  157  A    between atoms: _385  and  _386
REMARK  158  A    between atoms: _386  and  _387
REMARK  159  A    between atoms: _387  and  _388
REMARK  160  A    between atoms: _397  and  _399
REMARK  161  A    between atoms: _399  and  _400
REMARK  162  A    between atoms: _402  and  _404
REMARK  163  A    between atoms: _404  and  _405
REMARK  164  A    between atoms: _404  and  _407
REMARK  165  A    between atoms: _407  and  _408
REMARK  166  A    between atoms: _414  and  _416
REMARK  167  A    between atoms: _416  and  _417
REMARK  168  A    between atoms: _416  and  _419
REMARK  169  A    between atoms: _419  and  _420
REMARK  170  A    between atoms: _423  and  _425
REMARK  171  A    between atoms: _425  and  _426
REMARK  172  A    between atoms: _425  and  _428
REMARK  173  A    between atoms: _428  and  _429
REMARK  174  A    between atoms: _434  and  _436
REMARK  175  A    between atoms: _436  and  _437
REMARK  176  A    between atoms: _436  and  _439
REMARK  177  A    between atoms: _439  and  _440
REMARK  178  A    between atoms: _443  and  _445
REMARK  179  A    between atoms: _445  and  _446
REMARK  180  A    between atoms: _445  and  _448
REMARK  181  A    between atoms: _448  and  _449
REMARK  182  A    between atoms: _454  and  _455
REMARK  183  A    between atoms: _457  and  _459
REMARK  184  A    between atoms: _459  and  _460
REMARK  185  A    between atoms: _459  and  _462
REMARK  186  A    between atoms: _462  and  _463
REMARK  187  A    between atoms: _466  and  _468
REMARK  188  A    between atoms: _468  and  _469
REMARK  189  A    between atoms: _468  and  _471
REMARK  190  A    between atoms: _471  and  _472
REMARK  191  A    between atoms: _472  and  _473
REMARK  192  A    between atoms: _476  and  _478
REMARK  193  A    between atoms: _478  and  _479
REMARK  194  A    between atoms: _478  and  _481
REMARK  195  A    between atoms: _481  and  _482
REMARK  196  A    between atoms: _485  and  _487
REMARK  197  A    between atoms: _487  and  _488
REMARK  198  A    between atoms: _490  and  _492
REMARK  199  A    between atoms: _492  and  _493
REMARK  200  A    between atoms: _495  and  _497
REMARK  201  A    between atoms: _497  and  _498
REMARK  202  A    between atoms: _497  and  _500
REMARK  203  A    between atoms: _500  and  _501
REMARK  204  A    between atoms: _501  and  _502
REMARK  205  A    between atoms: _507  and  _509
REMARK  206  A    between atoms: _509  and  _510
REMARK  207  A    between atoms: _513  and  _515
REMARK  208  A    between atoms: _515  and  _516
REMARK  209  A    between atoms: _515  and  _518
REMARK  210  A    between atoms: _518  and  _519
REMARK  211  A    between atoms: _522  and  _524
REMARK  212  A    between atoms: _524  and  _525
REMARK  213  A    between atoms: _524  and  _527
REMARK  214  A    between atoms: _527  and  _528
REMARK  215  A    between atoms: _528  and  _529
REMARK  216  A    between atoms: _534  and  _536
REMARK  217  A    between atoms: _536  and  _537
REMARK  218  A    between atoms: _536  and  _539
REMARK  219  A    between atoms: _539  and  _540
REMARK  220  A    between atoms: _543  and  _545
REMARK  221  A    between atoms: _545  and  _546
REMARK  222  A    between atoms: _545  and  _548
REMARK  223  A    between atoms: _548  and  _549
REMARK  224  A    between atoms: _549  and  _550
REMARK  225  A    between atoms: _550  and  _551
REMARK                            x       y       z     vdW  Elec       q    Type
REMARK                         _______ _______ _______ _____ _____    ______ ____
ROOT
ATOM      1  O   HOH     1       9.418  30.905  45.030  0.00  0.00    +0.000 OA
ENDROOT
TORSDOF 0
REMARK  Name = ../refined-set-2016/4r73/4r73_pocket.pdb
REMARK  225 active torsions:
REMARK  status: ('A' for Active; 'I' for Inactive)
REMARK    1  A    between atoms: _1  and  _3
REMARK    2  A    between atoms: _3  and  _4
REMARK    3  A    between atoms: _3  and  _6
REMARK    4  A    between atoms: _8  and  _10
REMARK    5  A    between atoms: _10  and  _11
REMARK    6  A    between atoms: _10  and  _13
REMARK    7  A    between atoms: _13  and  _14
REMARK    8  A    between atoms: _16  and  _18
REMARK    9  A    between atoms: _18  and  _19
REMARK   10  A    between atoms: _22  and  _24
REMARK   11  A    between atoms: _24  and  _25
REMARK   12  A    between atoms: _24  and  _27
REMARK   13  A    between atoms: _27  and  _28
REMARK   14  A    between atoms: _31  and  _33
REMARK   15  A    between atoms: _33  and  _34
REMARK   16  A    between atoms: _33  and  _36
REMARK   17  A    between atoms: _36  and  _37
REMARK   18  A    between atoms: _42  and  _44
REMARK   19  A    between atoms: _44  and  _45
REMARK   20  A    between atoms: _44  and  _47
REMARK   21  A    between atoms: _47  and  _48
REMARK   22  A    between atoms: _48  and  _49
REMARK   23  A    between atoms: _51  and  _53
REMARK   24  A    between atoms: _53  and  _54
REMARK   25  A    between atoms: _53  and  _56
REMARK   26  A    between atoms: _56  and  _57
REMARK   27  A    between atoms: _57  and  _58
REMARK   28  A    between atoms: _58  and  _59
REMARK   29  A    between atoms: _68  and  _70
REMARK   30  A    between atoms: _70  and  _71
REMARK   31  A    between atoms: _70  and  _73
REMARK   32  A    between atoms: _73  and  _74
REMARK   33  A    between atoms: _79  and  _81
REMARK   34  A    between atoms: _81  and  _82
REMARK   35  A    between atoms: _84  and  _86
REMARK   36  A    between atoms: _86  and  _87
REMARK   37  A    between atoms: _86  and  _89
REMARK   38  A    between atoms: _89  and  _90
REMARK   39  A    between atoms: _92  and  _94
REMARK   40  A    between atoms: _94  and  _95
REMARK   41  A    between atoms: _97  and  _99
REMARK   42  A    between atoms: _99  and  _100
REMARK   43  A    between atoms: _99  and  _102
REMARK   44  A    between atoms: _102  and  _103
REMARK   45  A    between atoms: _105  and  _107
REMARK   46  A    between atoms: _107  and  _108
REMARK   47  A    between atoms: _107  and  _110
REMARK   48  A    between atoms: _110  and  _111
REMARK   49  A    between atoms: _114  and  _116
REMARK   50  A    between atoms: _116  and  _117
REMARK   51  A    between atoms: _116  and  _119
REMARK   52  A    between atoms: _119  and  _120
REMARK   53  A    between atoms: _126  and  _128
REMARK   54  A    between atoms: _128  and  _129
REMARK   55  A    between atoms: _128  and  _131
REMARK   56  A    between atoms: _131  and  _132
REMARK   57  A    between atoms: _142  and  _144
REMARK   58  A    between atoms: _144  and  _145
REMARK   59  A    between atoms: _144  and  _147
REMARK   60  A    between atoms: _147  and  _148
REMARK   61  A    between atoms: _153  and  _154
REMARK   62  A    between atoms: _156  and  _158
REMARK   63  A    between atoms: _158  and  _159
REMARK   64  A    between atoms: _161  and  _163
REMARK   65  A    between atoms: _163  and  _164
REMARK   66  A    between atoms: _166  and  _168
REMARK   67  A    between atoms: _168  and  _169
REMARK   68  A    between atoms: _168  and  _171
REMARK   69  A    between atoms: _171  and  _172
REMARK   70  A    between atoms: _175  and  _177
REMARK   71  A    between atoms: _177  and  _178
REMARK   72  A    between atoms: _177  and  _180
REMARK   73  A    between atoms: _180  and  _181
REMARK   74  A    between atoms: _185  and  _186
REMARK   75  A    between atoms: _191  and  _193
REMARK   76  A    between atoms: _193  and  _194
REMARK   77  A    between atoms: _193  and  _196
REMARK   78  A    between atoms: _196  and  _197
REMARK   79  A    between atoms: _197  and  _198
REMARK   80  A    between atoms: _203  and  _205
REMARK   81  A    between atoms: _205  and  _206
REMARK   82  A    between atoms: _205  and  _208
REMARK   83  A    between atoms: _208  and  _209
REMARK   84  A    between atoms: _214  and  _215
REMARK   85  A    between atoms: _217  and  _219
REMARK   86  A    between atoms: _219  and  _220
REMARK   87  A    between atoms: _219  and  _222
REMARK   88  A    between atoms: _222  and  _223
REMARK   89  A    between atoms: _226  and  _228
REMARK   90  A    between atoms: _228  and  _229
REMARK   91  A    between atoms: _231  and  _233
REMARK   92  A    between atoms: _233  and  _234
REMARK   93  A    between atoms: _233  and  _236
REMARK   94  A    between atoms: _236  and  _237
REMARK   95  A    between atoms: _240  and  _242
REMARK   96  A    between atoms: _242  and  _243
REMARK   97  A    between atoms: _246  and  _248
REMARK   98  A    between atoms: _248  and  _249
REMARK   99  A    between atoms: _248  and  _251
REMARK  100  A    between atoms: _251  and  _252
REMARK  101  A    between atoms: _256  and  _257
REMARK  102  A    between atoms: _262  and  _264
REMARK  103  A    between atoms: _264  and  _265
REMARK  104  A    between atoms: _264  and  _267
REMARK  105  A    between atoms: _267  and  _268
REMARK  106  A    between atoms: _270  and  _272
REMARK  107  A    between atoms: _272  and  _273
REMARK  108  A    between atoms: _272  and  _275
REMARK  109  A    between atoms: _275  and  _276
REMARK  110  A    between atoms: _278  and  _280
REMARK  111  A    between atoms: _280  and  _281
REMARK  112  A    between atoms: _283  and  _285
REMARK  113  A    between atoms: _285  and  _286
REMARK  114  A    between atoms: _285  and  _288
REMARK  115  A    between atoms: _288  and  _289
REMARK  116  A    between atoms: _292  and  _294
REMARK  117  A    between atoms: _294  and  _295
REMARK  118  A    between atoms: _298  and  _300
REMARK  119  A    between atoms: _300  and  _301
REMARK  120  A    between atoms: _300  and  _303
REMARK  121  A    between atoms: _303  and  _304
REMARK  122  A    between atoms: _309  and  _310
REMARK  123  A    between atoms: _312  and  _314
REMARK  124  A    between atoms: _314  and  _315
REMARK  125  A    between atoms: _314  and  _317
REMARK  126  A    between atoms: _317  and  _318
REMARK  127  A    between atoms: _321  and  _323
REMARK  128  A    between atoms: _323  and  _324
REMARK  129  A    between atoms: _323  and  _326
REMARK  130  A    between atoms: _326  and  _327
REMARK  131  A    between atoms: _330  and  _332
REMARK  132  A    between atoms: _332  and  _333
REMARK  133  A    between atoms: _332  and  _335
REMARK  134  A    between atoms: _335  and  _336
REMARK  135  A    between atoms: _336  and  _337
REMARK  136  A    between atoms: _337  and  _338
REMARK  137  A    between atoms: _338  and  _339
REMARK  138  A    between atoms: _343  and  _345
REMARK  139  A    between atoms: _345  and  _346
REMARK  140  A    between atoms: _345  and  _348
REMARK  141  A    between atoms: _348  and  _349
REMARK  142  A    between atoms: _351  and  _353
REMARK  143  A    between atoms: _353  and  _354
REMARK  144  A    between atoms: _356  and  _358
REMARK  145  A    between atoms: _358  and  _359
REMARK  146  A    between atoms: _358  and  _361
REMARK  147  A    between atoms: _361  and  _362
REMARK  148  A    between atoms: _365  and  _367
REMARK  149  A    between atoms: _367  and  _368
REMARK  150  A    between atoms: _367  and  _370
REMARK  151  A    between atoms: _370  and  _371
REMARK  152  A    between atoms: _374  and  _376
REMARK  153  A    between atoms: _376  and  _377
REMARK  154  A    between atoms: _380  and  _382
REMARK  155  A    between atoms: _382  and  _383
REMARK  156  A    between atoms: _382  and  _385
REMARK  157  A    between atoms: _385  and  _386
REMARK  158  A    between atoms: _386  and  _387
REMARK  159  A    between atoms: _387  and  _388
REMARK  160  A    between atoms: _397  and  _399
REMARK  161  A    between atoms: _399  and  _400
REMARK  162  A    between atoms: _402  and  _404
REMARK  163  A    between atoms: _404  and  _405
REMARK  164  A    between atoms: _404  and  _407
REMARK  165  A    between atoms: _407  and  _408
REMARK  166  A    between atoms: _414  and  _416
REMARK  167  A    between atoms: _416  and  _417
REMARK  168  A    between atoms: _416  and  _419
REMARK  169  A    between atoms: _419  and  _420
REMARK  170  A    between atoms: _423  and  _425
REMARK  171  A    between atoms: _425  and  _426
REMARK  172  A    between atoms: _425  and  _428
REMARK  173  A    between atoms: _428  and  _429
REMARK  174  A    between atoms: _434  and  _436
REMARK  175  A    between atoms: _436  and  _437
REMARK  176  A    between atoms: _436  and  _439
REMARK  177  A    between atoms: _439  and  _440
REMARK  178  A    between atoms: _443  and  _445
REMARK  179  A    between atoms: _445  and  _446
REMARK  180  A    between atoms: _445  and  _448
REMARK  181  A    between atoms: _448  and  _449
REMARK  182  A    between atoms: _454  and  _455
REMARK  183  A    between atoms: _457  and  _459
REMARK  184  A    between atoms: _459  and  _460
REMARK  185  A    between atoms: _459  and  _462
REMARK  186  A    between atoms: _462  and  _463
REMARK  187  A    between atoms: _466  and  _468
REMARK  188  A    between atoms: _468  and  _469
REMARK  189  A    between atoms: _468  and  _471
REMARK  190  A    between atoms: _471  and  _472
REMARK  191  A    between atoms: _472  and  _473
REMARK  192  A    between atoms: _476  and  _478
REMARK  193  A    between atoms: _478  and  _479
REMARK  194  A    between atoms: _478  and  _481
REMARK  195  A    between atoms: _481  and  _482
REMARK  196  A    between atoms: _485  and  _487
REMARK  197  A    between atoms: _487  and  _488
REMARK  198  A    between atoms: _490  and  _492
REMARK  199  A    between atoms: _492  and  _493
REMARK  200  A    between atoms: _495  and  _497
REMARK  201  A    between atoms: _497  and  _498
REMARK  202  A    between atoms: _497  and  _500
REMARK  203  A    between atoms: _500  and  _501
REMARK  204  A    between atoms: _501  and  _502
REMARK  205  A    between atoms: _507  and  _509
REMARK  206  A    between atoms: _509  and  _510
REMARK  207  A    between atoms: _513  and  _515
REMARK  208  A    between atoms: _515  and  _516
REMARK  209  A    between atoms: _515  and  _518
REMARK  210  A    between atoms: _518  and  _519
REMARK  211  A    between atoms: _522  and  _524
REMARK  212  A    between atoms: _524  and  _525
REMARK  213  A    between atoms: _524  and  _527
REMARK  214  A    between atoms: _527  and  _528
REMARK  215  A    between atoms: _528  and  _529
REMARK  216  A    between atoms: _534  and  _536
REMARK  217  A    between atoms: _536  and  _537
REMARK  218  A    between atoms: _536  and  _539
REMARK  219  A    between atoms: _539  and  _540
REMARK  220  A    between atoms: _543  and  _545
REMARK  221  A    between atoms: _545  and  _546
REMARK  222  A    between atoms: _545  and  _548
REMARK  223  A    between atoms: _548  and  _549
REMARK  224  A    between atoms: _549  and  _550
REMARK  225  A    between atoms: _550  and  _551
REMARK                            x       y       z     vdW  Elec       q    Type
REMARK                         _______ _______ _______ _____ _____    ______ ____
ROOT
ATOM      1  O   HOH     1       8.591  21.285  40.862  0.00  0.00    +0.000 OA
ENDROOT
TORSDOF 0
REMARK  Name = ../refined-set-2016/4r73/4r73_pocket.pdb
REMARK  225 active torsions:
REMARK  status: ('A' for Active; 'I' for Inactive)
REMARK    1  A    between atoms: _1  and  _3
REMARK    2  A    between atoms: _3  and  _4
REMARK    3  A    between atoms: _3  and  _6
REMARK    4  A    between atoms: _8  and  _10
REMARK    5  A    between atoms: _10  and  _11
REMARK    6  A    between atoms: _10  and  _13
REMARK    7  A    between atoms: _13  and  _14
REMARK    8  A    between atoms: _16  and  _18
REMARK    9  A    between atoms: _18  and  _19
REMARK   10  A    between atoms: _22  and  _24
REMARK   11  A    between atoms: _24  and  _25
REMARK   12  A    between atoms: _24  and  _27
REMARK   13  A    between atoms: _27  and  _28
REMARK   14  A    between atoms: _31  and  _33
REMARK   15  A    between atoms: _33  and  _34
REMARK   16  A    between atoms: _33  and  _36
REMARK   17  A    between atoms: _36  and  _37
REMARK   18  A    between atoms: _42  and  _44
REMARK   19  A    between atoms: _44  and  _45
REMARK   20  A    between atoms: _44  and  _47
REMARK   21  A    between atoms: _47  and  _48
REMARK   22  A    between atoms: _48  and  _49
REMARK   23  A    between atoms: _51  and  _53
REMARK   24  A    between atoms: _53  and  _54
REMARK   25  A    between atoms: _53  and  _56
REMARK   26  A    between atoms: _56  and  _57
REMARK   27  A    between atoms: _57  and  _58
REMARK   28  A    between atoms: _58  and  _59
REMARK   29  A    between atoms: _68  and  _70
REMARK   30  A    between atoms: _70  and  _71
REMARK   31  A    between atoms: _70  and  _73
REMARK   32  A    between atoms: _73  and  _74
REMARK   33  A    between atoms: _79  and  _81
REMARK   34  A    between atoms: _81  and  _82
REMARK   35  A    between atoms: _84  and  _86
REMARK   36  A    between atoms: _86  and  _87
REMARK   37  A    between atoms: _86  and  _89
REMARK   38  A    between atoms: _89  and  _90
REMARK   39  A    between atoms: _92  and  _94
REMARK   40  A    between atoms: _94  and  _95
REMARK   41  A    between atoms: _97  and  _99
REMARK   42  A    between atoms: _99  and  _100
REMARK   43  A    between atoms: _99  and  _102
REMARK   44  A    between atoms: _102  and  _103
REMARK   45  A    between atoms: _105  and  _107
REMARK   46  A    between atoms: _107  and  _108
REMARK   47  A    between atoms: _107  and  _110
REMARK   48  A    between atoms: _110  and  _111
REMARK   49  A    between atoms: _114  and  _116
REMARK   50  A    between atoms: _116  and  _117
REMARK   51  A    between atoms: _116  and  _119
REMARK   52  A    between atoms: _119  and  _120
REMARK   53  A    between atoms: _126  and  _128
REMARK   54  A    between atoms: _128  and  _129
REMARK   55  A    between atoms: _128  and  _131
REMARK   56  A    between atoms: _131  and  _132
REMARK   57  A    between atoms: _142  and  _144
REMARK   58  A    between atoms: _144  and  _145
REMARK   59  A    between atoms: _144  and  _147
REMARK   60  A    between atoms: _147  and  _148
REMARK   61  A    between atoms: _153  and  _154
REMARK   62  A    between atoms: _156  and  _158
REMARK   63  A    between atoms: _158  and  _159
REMARK   64  A    between atoms: _161  and  _163
REMARK   65  A    between atoms: _163  and  _164
REMARK   66  A    between atoms: _166  and  _168
REMARK   67  A    between atoms: _168  and  _169
REMARK   68  A    between atoms: _168  and  _171
REMARK   69  A    between atoms: _171  and  _172
REMARK   70  A    between atoms: _175  and  _177
REMARK   71  A    between atoms: _177  and  _178
REMARK   72  A    between atoms: _177  and  _180
REMARK   73  A    between atoms: _180  and  _181
REMARK   74  A    between atoms: _185  and  _186
REMARK   75  A    between atoms: _191  and  _193
REMARK   76  A    between atoms: _193  and  _194
REMARK   77  A    between atoms: _193  and  _196
REMARK   78  A    between atoms: _196  and  _197
REMARK   79  A    between atoms: _197  and  _198
REMARK   80  A    between atoms: _203  and  _205
REMARK   81  A    between atoms: _205  and  _206
REMARK   82  A    between atoms: _205  and  _208
REMARK   83  A    between atoms: _208  and  _209
REMARK   84  A    between atoms: _214  and  _215
REMARK   85  A    between atoms: _217  and  _219
REMARK   86  A    between atoms: _219  and  _220
REMARK   87  A    between atoms: _219  and  _222
REMARK   88  A    between atoms: _222  and  _223
REMARK   89  A    between atoms: _226  and  _228
REMARK   90  A    between atoms: _228  and  _229
REMARK   91  A    between atoms: _231  and  _233
REMARK   92  A    between atoms: _233  and  _234
REMARK   93  A    between atoms: _233  and  _236
REMARK   94  A    between atoms: _236  and  _237
REMARK   95  A    between atoms: _240  and  _242
REMARK   96  A    between atoms: _242  and  _243
REMARK   97  A    between atoms: _246  and  _248
REMARK   98  A    between atoms: _248  and  _249
REMARK   99  A    between atoms: _248  and  _251
REMARK  100  A    between atoms: _251  and  _252
REMARK  101  A    between atoms: _256  and  _257
REMARK  102  A    between atoms: _262  and  _264
REMARK  103  A    between atoms: _264  and  _265
REMARK  104  A    between atoms: _264  and  _267
REMARK  105  A    between atoms: _267  and  _268
REMARK  106  A    between atoms: _270  and  _272
REMARK  107  A    between atoms: _272  and  _273
REMARK  108  A    between atoms: _272  and  _275
REMARK  109  A    between atoms: _275  and  _276
REMARK  110  A    between atoms: _278  and  _280
REMARK  111  A    between atoms: _280  and  _281
REMARK  112  A    between atoms: _283  and  _285
REMARK  113  A    between atoms: _285  and  _286
REMARK  114  A    between atoms: _285  and  _288
REMARK  115  A    between atoms: _288  and  _289
REMARK  116  A    between atoms: _292  and  _294
REMARK  117  A    between atoms: _294  and  _295
REMARK  118  A    between atoms: _298  and  _300
REMARK  119  A    between atoms: _300  and  _301
REMARK  120  A    between atoms: _300  and  _303
REMARK  121  A    between atoms: _303  and  _304
REMARK  122  A    between atoms: _309  and  _310
REMARK  123  A    between atoms: _312  and  _314
REMARK  124  A    between atoms: _314  and  _315
REMARK  125  A    between atoms: _314  and  _317
REMARK  126  A    between atoms: _317  and  _318
REMARK  127  A    between atoms: _321  and  _323
REMARK  128  A    between atoms: _323  and  _324
REMARK  129  A    between atoms: _323  and  _326
REMARK  130  A    between atoms: _326  and  _327
REMARK  131  A    between atoms: _330  and  _332
REMARK  132  A    between atoms: _332  and  _333
REMARK  133  A    between atoms: _332  and  _335
REMARK  134  A    between atoms: _335  and  _336
REMARK  135  A    between atoms: _336  and  _337
REMARK  136  A    between atoms: _337  and  _338
REMARK  137  A    between atoms: _338  and  _339
REMARK  138  A    between atoms: _343  and  _345
REMARK  139  A    between atoms: _345  and  _346
REMARK  140  A    between atoms: _345  and  _348
REMARK  141  A    between atoms: _348  and  _349
REMARK  142  A    between atoms: _351  and  _353
REMARK  143  A    between atoms: _353  and  _354
REMARK  144  A    between atoms: _356  and  _358
REMARK  145  A    between atoms: _358  and  _359
REMARK  146  A    between atoms: _358  and  _361
REMARK  147  A    between atoms: _361  and  _362
REMARK  148  A    between atoms: _365  and  _367
REMARK  149  A    between atoms: _367  and  _368
REMARK  150  A    between atoms: _367  and  _370
REMARK  151  A    between atoms: _370  and  _371
REMARK  152  A    between atoms: _374  and  _376
REMARK  153  A    between atoms: _376  and  _377
REMARK  154  A    between atoms: _380  and  _382
REMARK  155  A    between atoms: _382  and  _383
REMARK  156  A    between atoms: _382  and  _385
REMARK  157  A    between atoms: _385  and  _386
REMARK  158  A    between atoms: _386  and  _387
REMARK  159  A    between atoms: _387  and  _388
REMARK  160  A    between atoms: _397  and  _399
REMARK  161  A    between atoms: _399  and  _400
REMARK  162  A    between atoms: _402  and  _404
REMARK  163  A    between atoms: _404  and  _405
REMARK  164  A    between atoms: _404  and  _407
REMARK  165  A    between atoms: _407  and  _408
REMARK  166  A    between atoms: _414  and  _416
REMARK  167  A    between atoms: _416  and  _417
REMARK  168  A    between atoms: _416  and  _419
REMARK  169  A    between atoms: _419  and  _420
REMARK  170  A    between atoms: _423  and  _425
REMARK  171  A    between atoms: _425  and  _426
REMARK  172  A    between atoms: _425  and  _428
REMARK  173  A    between atoms: _428  and  _429
REMARK  174  A    between atoms: _434  and  _436
REMARK  175  A    between atoms: _436  and  _437
REMARK  176  A    between atoms: _436  and  _439
REMARK  177  A    between atoms: _439  and  _440
REMARK  178  A    between atoms: _443  and  _445
REMARK  179  A    between atoms: _445  and  _446
REMARK  180  A    between atoms: _445  and  _448
REMARK  181  A    between atoms: _448  and  _449
REMARK  182  A    between atoms: _454  and  _455
REMARK  183  A    between atoms: _457  and  _459
REMARK  184  A    between atoms: _459  and  _460
REMARK  185  A    between atoms: _459  and  _462
REMARK  186  A    between atoms: _462  and  _463
REMARK  187  A    between atoms: _466  and  _468
REMARK  188  A    between atoms: _468  and  _469
REMARK  189  A    between atoms: _468  and  _471
REMARK  190  A    between atoms: _471  and  _472
REMARK  191  A    between atoms: _472  and  _473
REMARK  192  A    between atoms: _476  and  _478
REMARK  193  A    between atoms: _478  and  _479
REMARK  194  A    between atoms: _478  and  _481
REMARK  195  A    between atoms: _481  and  _482
REMARK  196  A    between atoms: _485  and  _487
REMARK  197  A    between atoms: _487  and  _488
REMARK  198  A    between atoms: _490  and  _492
REMARK  199  A    between atoms: _492  and  _493
REMARK  200  A    between atoms: _495  and  _497
REMARK  201  A    between atoms: _497  and  _498
REMARK  202  A    between atoms: _497  and  _500
REMARK  203  A    between atoms: _500  and  _501
REMARK  204  A    between atoms: _501  and  _502
REMARK  205  A    between atoms: _507  and  _509
REMARK  206  A    between atoms: _509  and  _510
REMARK  207  A    between atoms: _513  and  _515
REMARK  208  A    between atoms: _515  and  _516
REMARK  209  A    between atoms: _515  and  _518
REMARK  210  A    between atoms: _518  and  _519
REMARK  211  A    between atoms: _522  and  _524
REMARK  212  A    between atoms: _524  and  _525
REMARK  213  A    between atoms: _524  and  _527
REMARK  214  A    between atoms: _527  and  _528
REMARK  215  A    between atoms: _528  and  _529
REMARK  216  A    between atoms: _534  and  _536
REMARK  217  A    between atoms: _536  and  _537
REMARK  218  A    between atoms: _536  and  _539
REMARK  219  A    between atoms: _539  and  _540
REMARK  220  A    between atoms: _543  and  _545
REMARK  221  A    between atoms: _545  and  _546
REMARK  222  A    between atoms: _545  and  _548
REMARK  223  A    between atoms: _548  and  _549
REMARK  224  A    between atoms: _549  and  _550
REMARK  225  A    between atoms: _550  and  _551
REMARK                            x       y       z     vdW  Elec       q    Type
REMARK                         _______ _______ _______ _____ _____    ______ ____
ROOT
ATOM      1  O   HOH     1      13.256  32.276  44.892  0.00  0.00    +0.000 OA
ENDROOT
TORSDOF 0
REMARK  Name = ../refined-set-2016/4r73/4r73_pocket.pdb
REMARK  225 active torsions:
REMARK  status: ('A' for Active; 'I' for Inactive)
REMARK    1  A    between atoms: _1  and  _3
REMARK    2  A    between atoms: _3  and  _4
REMARK    3  A    between atoms: _3  and  _6
REMARK    4  A    between atoms: _8  and  _10
REMARK    5  A    between atoms: _10  and  _11
REMARK    6  A    between atoms: _10  and  _13
REMARK    7  A    between atoms: _13  and  _14
REMARK    8  A    between atoms: _16  and  _18
REMARK    9  A    between atoms: _18  and  _19
REMARK   10  A    between atoms: _22  and  _24
REMARK   11  A    between atoms: _24  and  _25
REMARK   12  A    between atoms: _24  and  _27
REMARK   13  A    between atoms: _27  and  _28
REMARK   14  A    between atoms: _31  and  _33
REMARK   15  A    between atoms: _33  and  _34
REMARK   16  A    between atoms: _33  and  _36
REMARK   17  A    between atoms: _36  and  _37
REMARK   18  A    between atoms: _42  and  _44
REMARK   19  A    between atoms: _44  and  _45
REMARK   20  A    between atoms: _44  and  _47
REMARK   21  A    between atoms: _47  and  _48
REMARK   22  A    between atoms: _48  and  _49
REMARK   23  A    between atoms: _51  and  _53
REMARK   24  A    between atoms: _53  and  _54
REMARK   25  A    between atoms: _53  and  _56
REMARK   26  A    between atoms: _56  and  _57
REMARK   27  A    between atoms: _57  and  _58
REMARK   28  A    between atoms: _58  and  _59
REMARK   29  A    between atoms: _68  and  _70
REMARK   30  A    between atoms: _70  and  _71
REMARK   31  A    between atoms: _70  and  _73
REMARK   32  A    between atoms: _73  and  _74
REMARK   33  A    between atoms: _79  and  _81
REMARK   34  A    between atoms: _81  and  _82
REMARK   35  A    between atoms: _84  and  _86
REMARK   36  A    between atoms: _86  and  _87
REMARK   37  A    between atoms: _86  and  _89
REMARK   38  A    between atoms: _89  and  _90
REMARK   39  A    between atoms: _92  and  _94
REMARK   40  A    between atoms: _94  and  _95
REMARK   41  A    between atoms: _97  and  _99
REMARK   42  A    between atoms: _99  and  _100
REMARK   43  A    between atoms: _99  and  _102
REMARK   44  A    between atoms: _102  and  _103
REMARK   45  A    between atoms: _105  and  _107
REMARK   46  A    between atoms: _107  and  _108
REMARK   47  A    between atoms: _107  and  _110
REMARK   48  A    between atoms: _110  and  _111
REMARK   49  A    between atoms: _114  and  _116
REMARK   50  A    between atoms: _116  and  _117
REMARK   51  A    between atoms: _116  and  _119
REMARK   52  A    between atoms: _119  and  _120
REMARK   53  A    between atoms: _126  and  _128
REMARK   54  A    between atoms: _128  and  _129
REMARK   55  A    between atoms: _128  and  _131
REMARK   56  A    between atoms: _131  and  _132
REMARK   57  A    between atoms: _142  and  _144
REMARK   58  A    between atoms: _144  and  _145
REMARK   59  A    between atoms: _144  and  _147
REMARK   60  A    between atoms: _147  and  _148
REMARK   61  A    between atoms: _153  and  _154
REMARK   62  A    between atoms: _156  and  _158
REMARK   63  A    between atoms: _158  and  _159
REMARK   64  A    between atoms: _161  and  _163
REMARK   65  A    between atoms: _163  and  _164
REMARK   66  A    between atoms: _166  and  _168
REMARK   67  A    between atoms: _168  and  _169
REMARK   68  A    between atoms: _168  and  _171
REMARK   69  A    between atoms: _171  and  _172
REMARK   70  A    between atoms: _175  and  _177
REMARK   71  A    between atoms: _177  and  _178
REMARK   72  A    between atoms: _177  and  _180
REMARK   73  A    between atoms: _180  and  _181
REMARK   74  A    between atoms: _185  and  _186
REMARK   75  A    between atoms: _191  and  _193
REMARK   76  A    between atoms: _193  and  _194
REMARK   77  A    between atoms: _193  and  _196
REMARK   78  A    between atoms: _196  and  _197
REMARK   79  A    between atoms: _197  and  _198
REMARK   80  A    between atoms: _203  and  _205
REMARK   81  A    between atoms: _205  and  _206
REMARK   82  A    between atoms: _205  and  _208
REMARK   83  A    between atoms: _208  and  _209
REMARK   84  A    between atoms: _214  and  _215
REMARK   85  A    between atoms: _217  and  _219
REMARK   86  A    between atoms: _219  and  _220
REMARK   87  A    between atoms: _219  and  _222
REMARK   88  A    between atoms: _222  and  _223
REMARK   89  A    between atoms: _226  and  _228
REMARK   90  A    between atoms: _228  and  _229
REMARK   91  A    between atoms: _231  and  _233
REMARK   92  A    between atoms: _233  and  _234
REMARK   93  A    between atoms: _233  and  _236
REMARK   94  A    between atoms: _236  and  _237
REMARK   95  A    between atoms: _240  and  _242
REMARK   96  A    between atoms: _242  and  _243
REMARK   97  A    between atoms: _246  and  _248
REMARK   98  A    between atoms: _248  and  _249
REMARK   99  A    between atoms: _248  and  _251
REMARK  100  A    between atoms: _251  and  _252
REMARK  101  A    between atoms: _256  and  _257
REMARK  102  A    between atoms: _262  and  _264
REMARK  103  A    between atoms: _264  and  _265
REMARK  104  A    between atoms: _264  and  _267
REMARK  105  A    between atoms: _267  and  _268
REMARK  106  A    between atoms: _270  and  _272
REMARK  107  A    between atoms: _272  and  _273
REMARK  108  A    between atoms: _272  and  _275
REMARK  109  A    between atoms: _275  and  _276
REMARK  110  A    between atoms: _278  and  _280
REMARK  111  A    between atoms: _280  and  _281
REMARK  112  A    between atoms: _283  and  _285
REMARK  113  A    between atoms: _285  and  _286
REMARK  114  A    between atoms: _285  and  _288
REMARK  115  A    between atoms: _288  and  _289
REMARK  116  A    between atoms: _292  and  _294
REMARK  117  A    between atoms: _294  and  _295
REMARK  118  A    between atoms: _298  and  _300
REMARK  119  A    between atoms: _300  and  _301
REMARK  120  A    between atoms: _300  and  _303
REMARK  121  A    between atoms: _303  and  _304
REMARK  122  A    between atoms: _309  and  _310
REMARK  123  A    between atoms: _312  and  _314
REMARK  124  A    between atoms: _314  and  _315
REMARK  125  A    between atoms: _314  and  _317
REMARK  126  A    between atoms: _317  and  _318
REMARK  127  A    between atoms: _321  and  _323
REMARK  128  A    between atoms: _323  and  _324
REMARK  129  A    between atoms: _323  and  _326
REMARK  130  A    between atoms: _326  and  _327
REMARK  131  A    between atoms: _330  and  _332
REMARK  132  A    between atoms: _332  and  _333
REMARK  133  A    between atoms: _332  and  _335
REMARK  134  A    between atoms: _335  and  _336
REMARK  135  A    between atoms: _336  and  _337
REMARK  136  A    between atoms: _337  and  _338
REMARK  137  A    between atoms: _338  and  _339
REMARK  138  A    between atoms: _343  and  _345
REMARK  139  A    between atoms: _345  and  _346
REMARK  140  A    between atoms: _345  and  _348
REMARK  141  A    between atoms: _348  and  _349
REMARK  142  A    between atoms: _351  and  _353
REMARK  143  A    between atoms: _353  and  _354
REMARK  144  A    between atoms: _356  and  _358
REMARK  145  A    between atoms: _358  and  _359
REMARK  146  A    between atoms: _358  and  _361
REMARK  147  A    between atoms: _361  and  _362
REMARK  148  A    between atoms: _365  and  _367
REMARK  149  A    between atoms: _367  and  _368
REMARK  150  A    between atoms: _367  and  _370
REMARK  151  A    between atoms: _370  and  _371
REMARK  152  A    between atoms: _374  and  _376
REMARK  153  A    between atoms: _376  and  _377
REMARK  154  A    between atoms: _380  and  _382
REMARK  155  A    between atoms: _382  and  _383
REMARK  156  A    between atoms: _382  and  _385
REMARK  157  A    between atoms: _385  and  _386
REMARK  158  A    between atoms: _386  and  _387
REMARK  159  A    between atoms: _387  and  _388
REMARK  160  A    between atoms: _397  and  _399
REMARK  161  A    between atoms: _399  and  _400
REMARK  162  A    between atoms: _402  and  _404
REMARK  163  A    between atoms: _404  and  _405
REMARK  164  A    between atoms: _404  and  _407
REMARK  165  A    between atoms: _407  and  _408
REMARK  166  A    between atoms: _414  and  _416
REMARK  167  A    between atoms: _416  and  _417
REMARK  168  A    between atoms: _416  and  _419
REMARK  169  A    between atoms: _419  and  _420
REMARK  170  A    between atoms: _423  and  _425
REMARK  171  A    between atoms: _425  and  _426
REMARK  172  A    between atoms: _425  and  _428
REMARK  173  A    between atoms: _428  and  _429
REMARK  174  A    between atoms: _434  and  _436
REMARK  175  A    between atoms: _436  and  _437
REMARK  176  A    between atoms: _436  and  _439
REMARK  177  A    between atoms: _439  and  _440
REMARK  178  A    between atoms: _443  and  _445
REMARK  179  A    between atoms: _445  and  _446
REMARK  180  A    between atoms: _445  and  _448
REMARK  181  A    between atoms: _448  and  _449
REMARK  182  A    between atoms: _454  and  _455
REMARK  183  A    between atoms: _457  and  _459
REMARK  184  A    between atoms: _459  and  _460
REMARK  185  A    between atoms: _459  and  _462
REMARK  186  A    between atoms: _462  and  _463
REMARK  187  A    between atoms: _466  and  _468
REMARK  188  A    between atoms: _468  and  _469
REMARK  189  A    between atoms: _468  and  _471
REMARK  190  A    between atoms: _471  and  _472
REMARK  191  A    between atoms: _472  and  _473
REMARK  192  A    between atoms: _476  and  _478
REMARK  193  A    between atoms: _478  and  _479
REMARK  194  A    between atoms: _478  and  _481
REMARK  195  A    between atoms: _481  and  _482
REMARK  196  A    between atoms: _485  and  _487
REMARK  197  A    between atoms: _487  and  _488
REMARK  198  A    between atoms: _490  and  _492
REMARK  199  A    between atoms: _492  and  _493
REMARK  200  A    between atoms: _495  and  _497
REMARK  201  A    between atoms: _497  and  _498
REMARK  202  A    between atoms: _497  and  _500
REMARK  203  A    between atoms: _500  and  _501
REMARK  204  A    between atoms: _501  and  _502
REMARK  205  A    between atoms: _507  and  _509
REMARK  206  A    between atoms: _509  and  _510
REMARK  207  A    between atoms: _513  and  _515
REMARK  208  A    between atoms: _515  and  _516
REMARK  209  A    between atoms: _515  and  _518
REMARK  210  A    between atoms: _518  and  _519
REMARK  211  A    between atoms: _522  and  _524
REMARK  212  A    between atoms: _524  and  _525
REMARK  213  A    between atoms: _524  and  _527
REMARK  214  A    between atoms: _527  and  _528
REMARK  215  A    between atoms: _528  and  _529
REMARK  216  A    between atoms: _534  and  _536
REMARK  217  A    between atoms: _536  and  _537
REMARK  218  A    between atoms: _536  and  _539
REMARK  219  A    between atoms: _539  and  _540
REMARK  220  A    between atoms: _543  and  _545
REMARK  221  A    between atoms: _545  and  _546
REMARK  222  A    between atoms: _545  and  _548
REMARK  223  A    between atoms: _548  and  _549
REMARK  224  A    between atoms: _549  and  _550
REMARK  225  A    between atoms: _550  and  _551
REMARK                            x       y       z     vdW  Elec       q    Type
REMARK                         _______ _______ _______ _____ _____    ______ ____
ROOT
ATOM      1  O   HOH     1      21.166  25.026  45.058  0.00  0.00    +0.000 OA
ENDROOT
TORSDOF 0
REMARK  Name = ../refined-set-2016/4r73/4r73_pocket.pdb
REMARK  225 active torsions:
REMARK  status: ('A' for Active; 'I' for Inactive)
REMARK    1  A    between atoms: _1  and  _3
REMARK    2  A    between atoms: _3  and  _4
REMARK    3  A    between atoms: _3  and  _6
REMARK    4  A    between atoms: _8  and  _10
REMARK    5  A    between atoms: _10  and  _11
REMARK    6  A    between atoms: _10  and  _13
REMARK    7  A    between atoms: _13  and  _14
REMARK    8  A    between atoms: _16  and  _18
REMARK    9  A    between atoms: _18  and  _19
REMARK   10  A    between atoms: _22  and  _24
REMARK   11  A    between atoms: _24  and  _25
REMARK   12  A    between atoms: _24  and  _27
REMARK   13  A    between atoms: _27  and  _28
REMARK   14  A    between atoms: _31  and  _33
REMARK   15  A    between atoms: _33  and  _34
REMARK   16  A    between atoms: _33  and  _36
REMARK   17  A    between atoms: _36  and  _37
REMARK   18  A    between atoms: _42  and  _44
REMARK   19  A    between atoms: _44  and  _45
REMARK   20  A    between atoms: _44  and  _47
REMARK   21  A    between atoms: _47  and  _48
REMARK   22  A    between atoms: _48  and  _49
REMARK   23  A    between atoms: _51  and  _53
REMARK   24  A    between atoms: _53  and  _54
REMARK   25  A    between atoms: _53  and  _56
REMARK   26  A    between atoms: _56  and  _57
REMARK   27  A    between atoms: _57  and  _58
REMARK   28  A    between atoms: _58  and  _59
REMARK   29  A    between atoms: _68  and  _70
REMARK   30  A    between atoms: _70  and  _71
REMARK   31  A    between atoms: _70  and  _73
REMARK   32  A    between atoms: _73  and  _74
REMARK   33  A    between atoms: _79  and  _81
REMARK   34  A    between atoms: _81  and  _82
REMARK   35  A    between atoms: _84  and  _86
REMARK   36  A    between atoms: _86  and  _87
REMARK   37  A    between atoms: _86  and  _89
REMARK   38  A    between atoms: _89  and  _90
REMARK   39  A    between atoms: _92  and  _94
REMARK   40  A    between atoms: _94  and  _95
REMARK   41  A    between atoms: _97  and  _99
REMARK   42  A    between atoms: _99  and  _100
REMARK   43  A    between atoms: _99  and  _102
REMARK   44  A    between atoms: _102  and  _103
REMARK   45  A    between atoms: _105  and  _107
REMARK   46  A    between atoms: _107  and  _108
REMARK   47  A    between atoms: _107  and  _110
REMARK   48  A    between atoms: _110  and  _111
REMARK   49  A    between atoms: _114  and  _116
REMARK   50  A    between atoms: _116  and  _117
REMARK   51  A    between atoms: _116  and  _119
REMARK   52  A    between atoms: _119  and  _120
REMARK   53  A    between atoms: _126  and  _128
REMARK   54  A    between atoms: _128  and  _129
REMARK   55  A    between atoms: _128  and  _131
REMARK   56  A    between atoms: _131  and  _132
REMARK   57  A    between atoms: _142  and  _144
REMARK   58  A    between atoms: _144  and  _145
REMARK   59  A    between atoms: _144  and  _147
REMARK   60  A    between atoms: _147  and  _148
REMARK   61  A    between atoms: _153  and  _154
REMARK   62  A    between atoms: _156  and  _158
REMARK   63  A    between atoms: _158  and  _159
REMARK   64  A    between atoms: _161  and  _163
REMARK   65  A    between atoms: _163  and  _164
REMARK   66  A    between atoms: _166  and  _168
REMARK   67  A    between atoms: _168  and  _169
REMARK   68  A    between atoms: _168  and  _171
REMARK   69  A    between atoms: _171  and  _172
REMARK   70  A    between atoms: _175  and  _177
REMARK   71  A    between atoms: _177  and  _178
REMARK   72  A    between atoms: _177  and  _180
REMARK   73  A    between atoms: _180  and  _181
REMARK   74  A    between atoms: _185  and  _186
REMARK   75  A    between atoms: _191  and  _193
REMARK   76  A    between atoms: _193  and  _194
REMARK   77  A    between atoms: _193  and  _196
REMARK   78  A    between atoms: _196  and  _197
REMARK   79  A    between atoms: _197  and  _198
REMARK   80  A    between atoms: _203  and  _205
REMARK   81  A    between atoms: _205  and  _206
REMARK   82  A    between atoms: _205  and  _208
REMARK   83  A    between atoms: _208  and  _209
REMARK   84  A    between atoms: _214  and  _215
REMARK   85  A    between atoms: _217  and  _219
REMARK   86  A    between atoms: _219  and  _220
REMARK   87  A    between atoms: _219  and  _222
REMARK   88  A    between atoms: _222  and  _223
REMARK   89  A    between atoms: _226  and  _228
REMARK   90  A    between atoms: _228  and  _229
REMARK   91  A    between atoms: _231  and  _233
REMARK   92  A    between atoms: _233  and  _234
REMARK   93  A    between atoms: _233  and  _236
REMARK   94  A    between atoms: _236  and  _237
REMARK   95  A    between atoms: _240  and  _242
REMARK   96  A    between atoms: _242  and  _243
REMARK   97  A    between atoms: _246  and  _248
REMARK   98  A    between atoms: _248  and  _249
REMARK   99  A    between atoms: _248  and  _251
REMARK  100  A    between atoms: _251  and  _252
REMARK  101  A    between atoms: _256  and  _257
REMARK  102  A    between atoms: _262  and  _264
REMARK  103  A    between atoms: _264  and  _265
REMARK  104  A    between atoms: _264  and  _267
REMARK  105  A    between atoms: _267  and  _268
REMARK  106  A    between atoms: _270  and  _272
REMARK  107  A    between atoms: _272  and  _273
REMARK  108  A    between atoms: _272  and  _275
REMARK  109  A    between atoms: _275  and  _276
REMARK  110  A    between atoms: _278  and  _280
REMARK  111  A    between atoms: _280  and  _281
REMARK  112  A    between atoms: _283  and  _285
REMARK  113  A    between atoms: _285  and  _286
REMARK  114  A    between atoms: _285  and  _288
REMARK  115  A    between atoms: _288  and  _289
REMARK  116  A    between atoms: _292  and  _294
REMARK  117  A    between atoms: _294  and  _295
REMARK  118  A    between atoms: _298  and  _300
REMARK  119  A    between atoms: _300  and  _301
REMARK  120  A    between atoms: _300  and  _303
REMARK  121  A    between atoms: _303  and  _304
REMARK  122  A    between atoms: _309  and  _310
REMARK  123  A    between atoms: _312  and  _314
REMARK  124  A    between atoms: _314  and  _315
REMARK  125  A    between atoms: _314  and  _317
REMARK  126  A    between atoms: _317  and  _318
REMARK  127  A    between atoms: _321  and  _323
REMARK  128  A    between atoms: _323  and  _324
REMARK  129  A    between atoms: _323  and  _326
REMARK  130  A    between atoms: _326  and  _327
REMARK  131  A    between atoms: _330  and  _332
REMARK  132  A    between atoms: _332  and  _333
REMARK  133  A    between atoms: _332  and  _335
REMARK  134  A    between atoms: _335  and  _336
REMARK  135  A    between atoms: _336  and  _337
REMARK  136  A    between atoms: _337  and  _338
REMARK  137  A    between atoms: _338  and  _339
REMARK  138  A    between atoms: _343  and  _345
REMARK  139  A    between atoms: _345  and  _346
REMARK  140  A    between atoms: _345  and  _348
REMARK  141  A    between atoms: _348  and  _349
REMARK  142  A    between atoms: _351  and  _353
REMARK  143  A    between atoms: _353  and  _354
REMARK  144  A    between atoms: _356  and  _358
REMARK  145  A    between atoms: _358  and  _359
REMARK  146  A    between atoms: _358  and  _361
REMARK  147  A    between atoms: _361  and  _362
REMARK  148  A    between atoms: _365  and  _367
REMARK  149  A    between atoms: _367  and  _368
REMARK  150  A    between atoms: _367  and  _370
REMARK  151  A    between atoms: _370  and  _371
REMARK  152  A    between atoms: _374  and  _376
REMARK  153  A    between atoms: _376  and  _377
REMARK  154  A    between atoms: _380  and  _382
REMARK  155  A    between atoms: _382  and  _383
REMARK  156  A    between atoms: _382  and  _385
REMARK  157  A    between atoms: _385  and  _386
REMARK  158  A    between atoms: _386  and  _387
REMARK  159  A    between atoms: _387  and  _388
REMARK  160  A    between atoms: _397  and  _399
REMARK  161  A    between atoms: _399  and  _400
REMARK  162  A    between atoms: _402  and  _404
REMARK  163  A    between atoms: _404  and  _405
REMARK  164  A    between atoms: _404  and  _407
REMARK  165  A    between atoms: _407  and  _408
REMARK  166  A    between atoms: _414  and  _416
REMARK  167  A    between atoms: _416  and  _417
REMARK  168  A    between atoms: _416  and  _419
REMARK  169  A    between atoms: _419  and  _420
REMARK  170  A    between atoms: _423  and  _425
REMARK  171  A    between atoms: _425  and  _426
REMARK  172  A    between atoms: _425  and  _428
REMARK  173  A    between atoms: _428  and  _429
REMARK  174  A    between atoms: _434  and  _436
REMARK  175  A    between atoms: _436  and  _437
REMARK  176  A    between atoms: _436  and  _439
REMARK  177  A    between atoms: _439  and  _440
REMARK  178  A    between atoms: _443  and  _445
REMARK  179  A    between atoms: _445  and  _446
REMARK  180  A    between atoms: _445  and  _448
REMARK  181  A    between atoms: _448  and  _449
REMARK  182  A    between atoms: _454  and  _455
REMARK  183  A    between atoms: _457  and  _459
REMARK  184  A    between atoms: _459  and  _460
REMARK  185  A    between atoms: _459  and  _462
REMARK  186  A    between atoms: _462  and  _463
REMARK  187  A    between atoms: _466  and  _468
REMARK  188  A    between atoms: _468  and  _469
REMARK  189  A    between atoms: _468  and  _471
REMARK  190  A    between atoms: _471  and  _472
REMARK  191  A    between atoms: _472  and  _473
REMARK  192  A    between atoms: _476  and  _478
REMARK  193  A    between atoms: _478  and  _479
REMARK  194  A    between atoms: _478  and  _481
REMARK  195  A    between atoms: _481  and  _482
REMARK  196  A    between atoms: _485  and  _487
REMARK  197  A    between atoms: _487  and  _488
REMARK  198  A    between atoms: _490  and  _492
REMARK  199  A    between atoms: _492  and  _493
REMARK  200  A    between atoms: _495  and  _497
REMARK  201  A    between atoms: _497  and  _498
REMARK  202  A    between atoms: _497  and  _500
REMARK  203  A    between atoms: _500  and  _501
REMARK  204  A    between atoms: _501  and  _502
REMARK  205  A    between atoms: _507  and  _509
REMARK  206  A    between atoms: _509  and  _510
REMARK  207  A    between atoms: _513  and  _515
REMARK  208  A    between atoms: _515  and  _516
REMARK  209  A    between atoms: _515  and  _518
REMARK  210  A    between atoms: _518  and  _519
REMARK  211  A    between atoms: _522  and  _524
REMARK  212  A    between atoms: _524  and  _525
REMARK  213  A    between atoms: _524  and  _527
REMARK  214  A    between atoms: _527  and  _528
REMARK  215  A    between atoms: _528  and  _529
REMARK  216  A    between atoms: _534  and  _536
REMARK  217  A    between atoms: _536  and  _537
REMARK  218  A    between atoms: _536  and  _539
REMARK  219  A    between atoms: _539  and  _540
REMARK  220  A    between atoms: _543  and  _545
REMARK  221  A    between atoms: _545  and  _546
REMARK  222  A    between atoms: _545  and  _548
REMARK  223  A    between atoms: _548  and  _549
REMARK  224  A    between atoms: _549  and  _550
REMARK  225  A    between atoms: _550  and  _551
REMARK                            x       y       z     vdW  Elec       q    Type
REMARK                         _______ _______ _______ _____ _____    ______ ____
ROOT
ATOM      1  O   HOH     1       8.617  15.447  48.027  0.00  0.00    +0.000 OA
ENDROOT
TORSDOF 0
REMARK  Name = ../refined-set-2016/4r73/4r73_pocket.pdb
REMARK  225 active torsions:
REMARK  status: ('A' for Active; 'I' for Inactive)
REMARK    1  A    between atoms: _1  and  _3
REMARK    2  A    between atoms: _3  and  _4
REMARK    3  A    between atoms: _3  and  _6
REMARK    4  A    between atoms: _8  and  _10
REMARK    5  A    between atoms: _10  and  _11
REMARK    6  A    between atoms: _10  and  _13
REMARK    7  A    between atoms: _13  and  _14
REMARK    8  A    between atoms: _16  and  _18
REMARK    9  A    between atoms: _18  and  _19
REMARK   10  A    between atoms: _22  and  _24
REMARK   11  A    between atoms: _24  and  _25
REMARK   12  A    between atoms: _24  and  _27
REMARK   13  A    between atoms: _27  and  _28
REMARK   14  A    between atoms: _31  and  _33
REMARK   15  A    between atoms: _33  and  _34
REMARK   16  A    between atoms: _33  and  _36
REMARK   17  A    between atoms: _36  and  _37
REMARK   18  A    between atoms: _42  and  _44
REMARK   19  A    between atoms: _44  and  _45
REMARK   20  A    between atoms: _44  and  _47
REMARK   21  A    between atoms: _47  and  _48
REMARK   22  A    between atoms: _48  and  _49
REMARK   23  A    between atoms: _51  and  _53
REMARK   24  A    between atoms: _53  and  _54
REMARK   25  A    between atoms: _53  and  _56
REMARK   26  A    between atoms: _56  and  _57
REMARK   27  A    between atoms: _57  and  _58
REMARK   28  A    between atoms: _58  and  _59
REMARK   29  A    between atoms: _68  and  _70
REMARK   30  A    between atoms: _70  and  _71
REMARK   31  A    between atoms: _70  and  _73
REMARK   32  A    between atoms: _73  and  _74
REMARK   33  A    between atoms: _79  and  _81
REMARK   34  A    between atoms: _81  and  _82
REMARK   35  A    between atoms: _84  and  _86
REMARK   36  A    between atoms: _86  and  _87
REMARK   37  A    between atoms: _86  and  _89
REMARK   38  A    between atoms: _89  and  _90
REMARK   39  A    between atoms: _92  and  _94
REMARK   40  A    between atoms: _94  and  _95
REMARK   41  A    between atoms: _97  and  _99
REMARK   42  A    between atoms: _99  and  _100
REMARK   43  A    between atoms: _99  and  _102
REMARK   44  A    between atoms: _102  and  _103
REMARK   45  A    between atoms: _105  and  _107
REMARK   46  A    between atoms: _107  and  _108
REMARK   47  A    between atoms: _107  and  _110
REMARK   48  A    between atoms: _110  and  _111
REMARK   49  A    between atoms: _114  and  _116
REMARK   50  A    between atoms: _116  and  _117
REMARK   51  A    between atoms: _116  and  _119
REMARK   52  A    between atoms: _119  and  _120
REMARK   53  A    between atoms: _126  and  _128
REMARK   54  A    between atoms: _128  and  _129
REMARK   55  A    between atoms: _128  and  _131
REMARK   56  A    between atoms: _131  and  _132
REMARK   57  A    between atoms: _142  and  _144
REMARK   58  A    between atoms: _144  and  _145
REMARK   59  A    between atoms: _144  and  _147
REMARK   60  A    between atoms: _147  and  _148
REMARK   61  A    between atoms: _153  and  _154
REMARK   62  A    between atoms: _156  and  _158
REMARK   63  A    between atoms: _158  and  _159
REMARK   64  A    between atoms: _161  and  _163
REMARK   65  A    between atoms: _163  and  _164
REMARK   66  A    between atoms: _166  and  _168
REMARK   67  A    between atoms: _168  and  _169
REMARK   68  A    between atoms: _168  and  _171
REMARK   69  A    between atoms: _171  and  _172
REMARK   70  A    between atoms: _175  and  _177
REMARK   71  A    between atoms: _177  and  _178
REMARK   72  A    between atoms: _177  and  _180
REMARK   73  A    between atoms: _180  and  _181
REMARK   74  A    between atoms: _185  and  _186
REMARK   75  A    between atoms: _191  and  _193
REMARK   76  A    between atoms: _193  and  _194
REMARK   77  A    between atoms: _193  and  _196
REMARK   78  A    between atoms: _196  and  _197
REMARK   79  A    between atoms: _197  and  _198
REMARK   80  A    between atoms: _203  and  _205
REMARK   81  A    between atoms: _205  and  _206
REMARK   82  A    between atoms: _205  and  _208
REMARK   83  A    between atoms: _208  and  _209
REMARK   84  A    between atoms: _214  and  _215
REMARK   85  A    between atoms: _217  and  _219
REMARK   86  A    between atoms: _219  and  _220
REMARK   87  A    between atoms: _219  and  _222
REMARK   88  A    between atoms: _222  and  _223
REMARK   89  A    between atoms: _226  and  _228
REMARK   90  A    between atoms: _228  and  _229
REMARK   91  A    between atoms: _231  and  _233
REMARK   92  A    between atoms: _233  and  _234
REMARK   93  A    between atoms: _233  and  _236
REMARK   94  A    between atoms: _236  and  _237
REMARK   95  A    between atoms: _240  and  _242
REMARK   96  A    between atoms: _242  and  _243
REMARK   97  A    between atoms: _246  and  _248
REMARK   98  A    between atoms: _248  and  _249
REMARK   99  A    between atoms: _248  and  _251
REMARK  100  A    between atoms: _251  and  _252
REMARK  101  A    between atoms: _256  and  _257
REMARK  102  A    between atoms: _262  and  _264
REMARK  103  A    between atoms: _264  and  _265
REMARK  104  A    between atoms: _264  and  _267
REMARK  105  A    between atoms: _267  and  _268
REMARK  106  A    between atoms: _270  and  _272
REMARK  107  A    between atoms: _272  and  _273
REMARK  108  A    between atoms: _272  and  _275
REMARK  109  A    between atoms: _275  and  _276
REMARK  110  A    between atoms: _278  and  _280
REMARK  111  A    between atoms: _280  and  _281
REMARK  112  A    between atoms: _283  and  _285
REMARK  113  A    between atoms: _285  and  _286
REMARK  114  A    between atoms: _285  and  _288
REMARK  115  A    between atoms: _288  and  _289
REMARK  116  A    between atoms: _292  and  _294
REMARK  117  A    between atoms: _294  and  _295
REMARK  118  A    between atoms: _298  and  _300
REMARK  119  A    between atoms: _300  and  _301
REMARK  120  A    between atoms: _300  and  _303
REMARK  121  A    between atoms: _303  and  _304
REMARK  122  A    between atoms: _309  and  _310
REMARK  123  A    between atoms: _312  and  _314
REMARK  124  A    between atoms: _314  and  _315
REMARK  125  A    between atoms: _314  and  _317
REMARK  126  A    between atoms: _317  and  _318
REMARK  127  A    between atoms: _321  and  _323
REMARK  128  A    between atoms: _323  and  _324
REMARK  129  A    between atoms: _323  and  _326
REMARK  130  A    between atoms: _326  and  _327
REMARK  131  A    between atoms: _330  and  _332
REMARK  132  A    between atoms: _332  and  _333
REMARK  133  A    between atoms: _332  and  _335
REMARK  134  A    between atoms: _335  and  _336
REMARK  135  A    between atoms: _336  and  _337
REMARK  136  A    between atoms: _337  and  _338
REMARK  137  A    between atoms: _338  and  _339
REMARK  138  A    between atoms: _343  and  _345
REMARK  139  A    between atoms: _345  and  _346
REMARK  140  A    between atoms: _345  and  _348
REMARK  141  A    between atoms: _348  and  _349
REMARK  142  A    between atoms: _351  and  _353
REMARK  143  A    between atoms: _353  and  _354
REMARK  144  A    between atoms: _356  and  _358
REMARK  145  A    between atoms: _358  and  _359
REMARK  146  A    between atoms: _358  and  _361
REMARK  147  A    between atoms: _361  and  _362
REMARK  148  A    between atoms: _365  and  _367
REMARK  149  A    between atoms: _367  and  _368
REMARK  150  A    between atoms: _367  and  _370
REMARK  151  A    between atoms: _370  and  _371
REMARK  152  A    between atoms: _374  and  _376
REMARK  153  A    between atoms: _376  and  _377
REMARK  154  A    between atoms: _380  and  _382
REMARK  155  A    between atoms: _382  and  _383
REMARK  156  A    between atoms: _382  and  _385
REMARK  157  A    between atoms: _385  and  _386
REMARK  158  A    between atoms: _386  and  _387
REMARK  159  A    between atoms: _387  and  _388
REMARK  160  A    between atoms: _397  and  _399
REMARK  161  A    between atoms: _399  and  _400
REMARK  162  A    between atoms: _402  and  _404
REMARK  163  A    between atoms: _404  and  _405
REMARK  164  A    between atoms: _404  and  _407
REMARK  165  A    between atoms: _407  and  _408
REMARK  166  A    between atoms: _414  and  _416
REMARK  167  A    between atoms: _416  and  _417
REMARK  168  A    between atoms: _416  and  _419
REMARK  169  A    between atoms: _419  and  _420
REMARK  170  A    between atoms: _423  and  _425
REMARK  171  A    between atoms: _425  and  _426
REMARK  172  A    between atoms: _425  and  _428
REMARK  173  A    between atoms: _428  and  _429
REMARK  174  A    between atoms: _434  and  _436
REMARK  175  A    between atoms: _436  and  _437
REMARK  176  A    between atoms: _436  and  _439
REMARK  177  A    between atoms: _439  and  _440
REMARK  178  A    between atoms: _443  and  _445
REMARK  179  A    between atoms: _445  and  _446
REMARK  180  A    between atoms: _445  and  _448
REMARK  181  A    between atoms: _448  and  _449
REMARK  182  A    between atoms: _454  and  _455
REMARK  183  A    between atoms: _457  and  _459
REMARK  184  A    between atoms: _459  and  _460
REMARK  185  A    between atoms: _459  and  _462
REMARK  186  A    between atoms: _462  and  _463
REMARK  187  A    between atoms: _466  and  _468
REMARK  188  A    between atoms: _468  and  _469
REMARK  189  A    between atoms: _468  and  _471
REMARK  190  A    between atoms: _471  and  _472
REMARK  191  A    between atoms: _472  and  _473
REMARK  192  A    between atoms: _476  and  _478
REMARK  193  A    between atoms: _478  and  _479
REMARK  194  A    between atoms: _478  and  _481
REMARK  195  A    between atoms: _481  and  _482
REMARK  196  A    between atoms: _485  and  _487
REMARK  197  A    between atoms: _487  and  _488
REMARK  198  A    between atoms: _490  and  _492
REMARK  199  A    between atoms: _492  and  _493
REMARK  200  A    between atoms: _495  and  _497
REMARK  201  A    between atoms: _497  and  _498
REMARK  202  A    between atoms: _497  and  _500
REMARK  203  A    between atoms: _500  and  _501
REMARK  204  A    between atoms: _501  and  _502
REMARK  205  A    between atoms: _507  and  _509
REMARK  206  A    between atoms: _509  and  _510
REMARK  207  A    between atoms: _513  and  _515
REMARK  208  A    between atoms: _515  and  _516
REMARK  209  A    between atoms: _515  and  _518
REMARK  210  A    between atoms: _518  and  _519
REMARK  211  A    between atoms: _522  and  _524
REMARK  212  A    between atoms: _524  and  _525
REMARK  213  A    between atoms: _524  and  _527
REMARK  214  A    between atoms: _527  and  _528
REMARK  215  A    between atoms: _528  and  _529
REMARK  216  A    between atoms: _534  and  _536
REMARK  217  A    between atoms: _536  and  _537
REMARK  218  A    between atoms: _536  and  _539
REMARK  219  A    between atoms: _539  and  _540
REMARK  220  A    between atoms: _543  and  _545
REMARK  221  A    between atoms: _545  and  _546
REMARK  222  A    between atoms: _545  and  _548
REMARK  223  A    between atoms: _548  and  _549
REMARK  224  A    between atoms: _549  and  _550
REMARK  225  A    between atoms: _550  and  _551
REMARK                            x       y       z     vdW  Elec       q    Type
REMARK                         _______ _______ _______ _____ _____    ______ ____
ROOT
ATOM      1  O   HOH     1       5.011  24.309  48.762  0.00  0.00    +0.000 OA
ENDROOT
TORSDOF 0
REMARK  Name = ../refined-set-2016/4r73/4r73_pocket.pdb
REMARK  225 active torsions:
REMARK  status: ('A' for Active; 'I' for Inactive)
REMARK    1  A    between atoms: _1  and  _3
REMARK    2  A    between atoms: _3  and  _4
REMARK    3  A    between atoms: _3  and  _6
REMARK    4  A    between atoms: _8  and  _10
REMARK    5  A    between atoms: _10  and  _11
REMARK    6  A    between atoms: _10  and  _13
REMARK    7  A    between atoms: _13  and  _14
REMARK    8  A    between atoms: _16  and  _18
REMARK    9  A    between atoms: _18  and  _19
REMARK   10  A    between atoms: _22  and  _24
REMARK   11  A    between atoms: _24  and  _25
REMARK   12  A    between atoms: _24  and  _27
REMARK   13  A    between atoms: _27  and  _28
REMARK   14  A    between atoms: _31  and  _33
REMARK   15  A    between atoms: _33  and  _34
REMARK   16  A    between atoms: _33  and  _36
REMARK   17  A    between atoms: _36  and  _37
REMARK   18  A    between atoms: _42  and  _44
REMARK   19  A    between atoms: _44  and  _45
REMARK   20  A    between atoms: _44  and  _47
REMARK   21  A    between atoms: _47  and  _48
REMARK   22  A    between atoms: _48  and  _49
REMARK   23  A    between atoms: _51  and  _53
REMARK   24  A    between atoms: _53  and  _54
REMARK   25  A    between atoms: _53  and  _56
REMARK   26  A    between atoms: _56  and  _57
REMARK   27  A    between atoms: _57  and  _58
REMARK   28  A    between atoms: _58  and  _59
REMARK   29  A    between atoms: _68  and  _70
REMARK   30  A    between atoms: _70  and  _71
REMARK   31  A    between atoms: _70  and  _73
REMARK   32  A    between atoms: _73  and  _74
REMARK   33  A    between atoms: _79  and  _81
REMARK   34  A    between atoms: _81  and  _82
REMARK   35  A    between atoms: _84  and  _86
REMARK   36  A    between atoms: _86  and  _87
REMARK   37  A    between atoms: _86  and  _89
REMARK   38  A    between atoms: _89  and  _90
REMARK   39  A    between atoms: _92  and  _94
REMARK   40  A    between atoms: _94  and  _95
REMARK   41  A    between atoms: _97  and  _99
REMARK   42  A    between atoms: _99  and  _100
REMARK   43  A    between atoms: _99  and  _102
REMARK   44  A    between atoms: _102  and  _103
REMARK   45  A    between atoms: _105  and  _107
REMARK   46  A    between atoms: _107  and  _108
REMARK   47  A    between atoms: _107  and  _110
REMARK   48  A    between atoms: _110  and  _111
REMARK   49  A    between atoms: _114  and  _116
REMARK   50  A    between atoms: _116  and  _117
REMARK   51  A    between atoms: _116  and  _119
REMARK   52  A    between atoms: _119  and  _120
REMARK   53  A    between atoms: _126  and  _128
REMARK   54  A    between atoms: _128  and  _129
REMARK   55  A    between atoms: _128  and  _131
REMARK   56  A    between atoms: _131  and  _132
REMARK   57  A    between atoms: _142  and  _144
REMARK   58  A    between atoms: _144  and  _145
REMARK   59  A    between atoms: _144  and  _147
REMARK   60  A    between atoms: _147  and  _148
REMARK   61  A    between atoms: _153  and  _154
REMARK   62  A    between atoms: _156  and  _158
REMARK   63  A    between atoms: _158  and  _159
REMARK   64  A    between atoms: _161  and  _163
REMARK   65  A    between atoms: _163  and  _164
REMARK   66  A    between atoms: _166  and  _168
REMARK   67  A    between atoms: _168  and  _169
REMARK   68  A    between atoms: _168  and  _171
REMARK   69  A    between atoms: _171  and  _172
REMARK   70  A    between atoms: _175  and  _177
REMARK   71  A    between atoms: _177  and  _178
REMARK   72  A    between atoms: _177  and  _180
REMARK   73  A    between atoms: _180  and  _181
REMARK   74  A    between atoms: _185  and  _186
REMARK   75  A    between atoms: _191  and  _193
REMARK   76  A    between atoms: _193  and  _194
REMARK   77  A    between atoms: _193  and  _196
REMARK   78  A    between atoms: _196  and  _197
REMARK   79  A    between atoms: _197  and  _198
REMARK   80  A    between atoms: _203  and  _205
REMARK   81  A    between atoms: _205  and  _206
REMARK   82  A    between atoms: _205  and  _208
REMARK   83  A    between atoms: _208  and  _209
REMARK   84  A    between atoms: _214  and  _215
REMARK   85  A    between atoms: _217  and  _219
REMARK   86  A    between atoms: _219  and  _220
REMARK   87  A    between atoms: _219  and  _222
REMARK   88  A    between atoms: _222  and  _223
REMARK   89  A    between atoms: _226  and  _228
REMARK   90  A    between atoms: _228  and  _229
REMARK   91  A    between atoms: _231  and  _233
REMARK   92  A    between atoms: _233  and  _234
REMARK   93  A    between atoms: _233  and  _236
REMARK   94  A    between atoms: _236  and  _237
REMARK   95  A    between atoms: _240  and  _242
REMARK   96  A    between atoms: _242  and  _243
REMARK   97  A    between atoms: _246  and  _248
REMARK   98  A    between atoms: _248  and  _249
REMARK   99  A    between atoms: _248  and  _251
REMARK  100  A    between atoms: _251  and  _252
REMARK  101  A    between atoms: _256  and  _257
REMARK  102  A    between atoms: _262  and  _264
REMARK  103  A    between atoms: _264  and  _265
REMARK  104  A    between atoms: _264  and  _267
REMARK  105  A    between atoms: _267  and  _268
REMARK  106  A    between atoms: _270  and  _272
REMARK  107  A    between atoms: _272  and  _273
REMARK  108  A    between atoms: _272  and  _275
REMARK  109  A    between atoms: _275  and  _276
REMARK  110  A    between atoms: _278  and  _280
REMARK  111  A    between atoms: _280  and  _281
REMARK  112  A    between atoms: _283  and  _285
REMARK  113  A    between atoms: _285  and  _286
REMARK  114  A    between atoms: _285  and  _288
REMARK  115  A    between atoms: _288  and  _289
REMARK  116  A    between atoms: _292  and  _294
REMARK  117  A    between atoms: _294  and  _295
REMARK  118  A    between atoms: _298  and  _300
REMARK  119  A    between atoms: _300  and  _301
REMARK  120  A    between atoms: _300  and  _303
REMARK  121  A    between atoms: _303  and  _304
REMARK  122  A    between atoms: _309  and  _310
REMARK  123  A    between atoms: _312  and  _314
REMARK  124  A    between atoms: _314  and  _315
REMARK  125  A    between atoms: _314  and  _317
REMARK  126  A    between atoms: _317  and  _318
REMARK  127  A    between atoms: _321  and  _323
REMARK  128  A    between atoms: _323  and  _324
REMARK  129  A    between atoms: _323  and  _326
REMARK  130  A    between atoms: _326  and  _327
REMARK  131  A    between atoms: _330  and  _332
REMARK  132  A    between atoms: _332  and  _333
REMARK  133  A    between atoms: _332  and  _335
REMARK  134  A    between atoms: _335  and  _336
REMARK  135  A    between atoms: _336  and  _337
REMARK  136  A    between atoms: _337  and  _338
REMARK  137  A    between atoms: _338  and  _339
REMARK  138  A    between atoms: _343  and  _345
REMARK  139  A    between atoms: _345  and  _346
REMARK  140  A    between atoms: _345  and  _348
REMARK  141  A    between atoms: _348  and  _349
REMARK  142  A    between atoms: _351  and  _353
REMARK  143  A    between atoms: _353  and  _354
REMARK  144  A    between atoms: _356  and  _358
REMARK  145  A    between atoms: _358  and  _359
REMARK  146  A    between atoms: _358  and  _361
REMARK  147  A    between atoms: _361  and  _362
REMARK  148  A    between atoms: _365  and  _367
REMARK  149  A    between atoms: _367  and  _368
REMARK  150  A    between atoms: _367  and  _370
REMARK  151  A    between atoms: _370  and  _371
REMARK  152  A    between atoms: _374  and  _376
REMARK  153  A    between atoms: _376  and  _377
REMARK  154  A    between atoms: _380  and  _382
REMARK  155  A    between atoms: _382  and  _383
REMARK  156  A    between atoms: _382  and  _385
REMARK  157  A    between atoms: _385  and  _386
REMARK  158  A    between atoms: _386  and  _387
REMARK  159  A    between atoms: _387  and  _388
REMARK  160  A    between atoms: _397  and  _399
REMARK  161  A    between atoms: _399  and  _400
REMARK  162  A    between atoms: _402  and  _404
REMARK  163  A    between atoms: _404  and  _405
REMARK  164  A    between atoms: _404  and  _407
REMARK  165  A    between atoms: _407  and  _408
REMARK  166  A    between atoms: _414  and  _416
REMARK  167  A    between atoms: _416  and  _417
REMARK  168  A    between atoms: _416  and  _419
REMARK  169  A    between atoms: _419  and  _420
REMARK  170  A    between atoms: _423  and  _425
REMARK  171  A    between atoms: _425  and  _426
REMARK  172  A    between atoms: _425  and  _428
REMARK  173  A    between atoms: _428  and  _429
REMARK  174  A    between atoms: _434  and  _436
REMARK  175  A    between atoms: _436  and  _437
REMARK  176  A    between atoms: _436  and  _439
REMARK  177  A    between atoms: _439  and  _440
REMARK  178  A    between atoms: _443  and  _445
REMARK  179  A    between atoms: _445  and  _446
REMARK  180  A    between atoms: _445  and  _448
REMARK  181  A    between atoms: _448  and  _449
REMARK  182  A    between atoms: _454  and  _455
REMARK  183  A    between atoms: _457  and  _459
REMARK  184  A    between atoms: _459  and  _460
REMARK  185  A    between atoms: _459  and  _462
REMARK  186  A    between atoms: _462  and  _463
REMARK  187  A    between atoms: _466  and  _468
REMARK  188  A    between atoms: _468  and  _469
REMARK  189  A    between atoms: _468  and  _471
REMARK  190  A    between atoms: _471  and  _472
REMARK  191  A    between atoms: _472  and  _473
REMARK  192  A    between atoms: _476  and  _478
REMARK  193  A    between atoms: _478  and  _479
REMARK  194  A    between atoms: _478  and  _481
REMARK  195  A    between atoms: _481  and  _482
REMARK  196  A    between atoms: _485  and  _487
REMARK  197  A    between atoms: _487  and  _488
REMARK  198  A    between atoms: _490  and  _492
REMARK  199  A    between atoms: _492  and  _493
REMARK  200  A    between atoms: _495  and  _497
REMARK  201  A    between atoms: _497  and  _498
REMARK  202  A    between atoms: _497  and  _500
REMARK  203  A    between atoms: _500  and  _501
REMARK  204  A    between atoms: _501  and  _502
REMARK  205  A    between atoms: _507  and  _509
REMARK  206  A    between atoms: _509  and  _510
REMARK  207  A    between atoms: _513  and  _515
REMARK  208  A    between atoms: _515  and  _516
REMARK  209  A    between atoms: _515  and  _518
REMARK  210  A    between atoms: _518  and  _519
REMARK  211  A    between atoms: _522  and  _524
REMARK  212  A    between atoms: _524  and  _525
REMARK  213  A    between atoms: _524  and  _527
REMARK  214  A    between atoms: _527  and  _528
REMARK  215  A    between atoms: _528  and  _529
REMARK  216  A    between atoms: _534  and  _536
REMARK  217  A    between atoms: _536  and  _537
REMARK  218  A    between atoms: _536  and  _539
REMARK  219  A    between atoms: _539  and  _540
REMARK  220  A    between atoms: _543  and  _545
REMARK  221  A    between atoms: _545  and  _546
REMARK  222  A    between atoms: _545  and  _548
REMARK  223  A    between atoms: _548  and  _549
REMARK  224  A    between atoms: _549  and  _550
REMARK  225  A    between atoms: _550  and  _551
REMARK                            x       y       z     vdW  Elec       q    Type
REMARK                         _______ _______ _______ _____ _____    ______ ____
ROOT
ATOM      1  O   HOH     1       8.798  21.644  50.734  0.00  0.00    +0.000 OA
ENDROOT
TORSDOF 0
REMARK  Name = ../refined-set-2016/4r73/4r73_pocket.pdb
REMARK  225 active torsions:
REMARK  status: ('A' for Active; 'I' for Inactive)
REMARK    1  A    between atoms: _1  and  _3
REMARK    2  A    between atoms: _3  and  _4
REMARK    3  A    between atoms: _3  and  _6
REMARK    4  A    between atoms: _8  and  _10
REMARK    5  A    between atoms: _10  and  _11
REMARK    6  A    between atoms: _10  and  _13
REMARK    7  A    between atoms: _13  and  _14
REMARK    8  A    between atoms: _16  and  _18
REMARK    9  A    between atoms: _18  and  _19
REMARK   10  A    between atoms: _22  and  _24
REMARK   11  A    between atoms: _24  and  _25
REMARK   12  A    between atoms: _24  and  _27
REMARK   13  A    between atoms: _27  and  _28
REMARK   14  A    between atoms: _31  and  _33
REMARK   15  A    between atoms: _33  and  _34
REMARK   16  A    between atoms: _33  and  _36
REMARK   17  A    between atoms: _36  and  _37
REMARK   18  A    between atoms: _42  and  _44
REMARK   19  A    between atoms: _44  and  _45
REMARK   20  A    between atoms: _44  and  _47
REMARK   21  A    between atoms: _47  and  _48
REMARK   22  A    between atoms: _48  and  _49
REMARK   23  A    between atoms: _51  and  _53
REMARK   24  A    between atoms: _53  and  _54
REMARK   25  A    between atoms: _53  and  _56
REMARK   26  A    between atoms: _56  and  _57
REMARK   27  A    between atoms: _57  and  _58
REMARK   28  A    between atoms: _58  and  _59
REMARK   29  A    between atoms: _68  and  _70
REMARK   30  A    between atoms: _70  and  _71
REMARK   31  A    between atoms: _70  and  _73
REMARK   32  A    between atoms: _73  and  _74
REMARK   33  A    between atoms: _79  and  _81
REMARK   34  A    between atoms: _81  and  _82
REMARK   35  A    between atoms: _84  and  _86
REMARK   36  A    between atoms: _86  and  _87
REMARK   37  A    between atoms: _86  and  _89
REMARK   38  A    between atoms: _89  and  _90
REMARK   39  A    between atoms: _92  and  _94
REMARK   40  A    between atoms: _94  and  _95
REMARK   41  A    between atoms: _97  and  _99
REMARK   42  A    between atoms: _99  and  _100
REMARK   43  A    between atoms: _99  and  _102
REMARK   44  A    between atoms: _102  and  _103
REMARK   45  A    between atoms: _105  and  _107
REMARK   46  A    between atoms: _107  and  _108
REMARK   47  A    between atoms: _107  and  _110
REMARK   48  A    between atoms: _110  and  _111
REMARK   49  A    between atoms: _114  and  _116
REMARK   50  A    between atoms: _116  and  _117
REMARK   51  A    between atoms: _116  and  _119
REMARK   52  A    between atoms: _119  and  _120
REMARK   53  A    between atoms: _126  and  _128
REMARK   54  A    between atoms: _128  and  _129
REMARK   55  A    between atoms: _128  and  _131
REMARK   56  A    between atoms: _131  and  _132
REMARK   57  A    between atoms: _142  and  _144
REMARK   58  A    between atoms: _144  and  _145
REMARK   59  A    between atoms: _144  and  _147
REMARK   60  A    between atoms: _147  and  _148
REMARK   61  A    between atoms: _153  and  _154
REMARK   62  A    between atoms: _156  and  _158
REMARK   63  A    between atoms: _158  and  _159
REMARK   64  A    between atoms: _161  and  _163
REMARK   65  A    between atoms: _163  and  _164
REMARK   66  A    between atoms: _166  and  _168
REMARK   67  A    between atoms: _168  and  _169
REMARK   68  A    between atoms: _168  and  _171
REMARK   69  A    between atoms: _171  and  _172
REMARK   70  A    between atoms: _175  and  _177
REMARK   71  A    between atoms: _177  and  _178
REMARK   72  A    between atoms: _177  and  _180
REMARK   73  A    between atoms: _180  and  _181
REMARK   74  A    between atoms: _185  and  _186
REMARK   75  A    between atoms: _191  and  _193
REMARK   76  A    between atoms: _193  and  _194
REMARK   77  A    between atoms: _193  and  _196
REMARK   78  A    between atoms: _196  and  _197
REMARK   79  A    between atoms: _197  and  _198
REMARK   80  A    between atoms: _203  and  _205
REMARK   81  A    between atoms: _205  and  _206
REMARK   82  A    between atoms: _205  and  _208
REMARK   83  A    between atoms: _208  and  _209
REMARK   84  A    between atoms: _214  and  _215
REMARK   85  A    between atoms: _217  and  _219
REMARK   86  A    between atoms: _219  and  _220
REMARK   87  A    between atoms: _219  and  _222
REMARK   88  A    between atoms: _222  and  _223
REMARK   89  A    between atoms: _226  and  _228
REMARK   90  A    between atoms: _228  and  _229
REMARK   91  A    between atoms: _231  and  _233
REMARK   92  A    between atoms: _233  and  _234
REMARK   93  A    between atoms: _233  and  _236
REMARK   94  A    between atoms: _236  and  _237
REMARK   95  A    between atoms: _240  and  _242
REMARK   96  A    between atoms: _242  and  _243
REMARK   97  A    between atoms: _246  and  _248
REMARK   98  A    between atoms: _248  and  _249
REMARK   99  A    between atoms: _248  and  _251
REMARK  100  A    between atoms: _251  and  _252
REMARK  101  A    between atoms: _256  and  _257
REMARK  102  A    between atoms: _262  and  _264
REMARK  103  A    between atoms: _264  and  _265
REMARK  104  A    between atoms: _264  and  _267
REMARK  105  A    between atoms: _267  and  _268
REMARK  106  A    between atoms: _270  and  _272
REMARK  107  A    between atoms: _272  and  _273
REMARK  108  A    between atoms: _272  and  _275
REMARK  109  A    between atoms: _275  and  _276
REMARK  110  A    between atoms: _278  and  _280
REMARK  111  A    between atoms: _280  and  _281
REMARK  112  A    between atoms: _283  and  _285
REMARK  113  A    between atoms: _285  and  _286
REMARK  114  A    between atoms: _285  and  _288
REMARK  115  A    between atoms: _288  and  _289
REMARK  116  A    between atoms: _292  and  _294
REMARK  117  A    between atoms: _294  and  _295
REMARK  118  A    between atoms: _298  and  _300
REMARK  119  A    between atoms: _300  and  _301
REMARK  120  A    between atoms: _300  and  _303
REMARK  121  A    between atoms: _303  and  _304
REMARK  122  A    between atoms: _309  and  _310
REMARK  123  A    between atoms: _312  and  _314
REMARK  124  A    between atoms: _314  and  _315
REMARK  125  A    between atoms: _314  and  _317
REMARK  126  A    between atoms: _317  and  _318
REMARK  127  A    between atoms: _321  and  _323
REMARK  128  A    between atoms: _323  and  _324
REMARK  129  A    between atoms: _323  and  _326
REMARK  130  A    between atoms: _326  and  _327
REMARK  131  A    between atoms: _330  and  _332
REMARK  132  A    between atoms: _332  and  _333
REMARK  133  A    between atoms: _332  and  _335
REMARK  134  A    between atoms: _335  and  _336
REMARK  135  A    between atoms: _336  and  _337
REMARK  136  A    between atoms: _337  and  _338
REMARK  137  A    between atoms: _338  and  _339
REMARK  138  A    between atoms: _343  and  _345
REMARK  139  A    between atoms: _345  and  _346
REMARK  140  A    between atoms: _345  and  _348
REMARK  141  A    between atoms: _348  and  _349
REMARK  142  A    between atoms: _351  and  _353
REMARK  143  A    between atoms: _353  and  _354
REMARK  144  A    between atoms: _356  and  _358
REMARK  145  A    between atoms: _358  and  _359
REMARK  146  A    between atoms: _358  and  _361
REMARK  147  A    between atoms: _361  and  _362
REMARK  148  A    between atoms: _365  and  _367
REMARK  149  A    between atoms: _367  and  _368
REMARK  150  A    between atoms: _367  and  _370
REMARK  151  A    between atoms: _370  and  _371
REMARK  152  A    between atoms: _374  and  _376
REMARK  153  A    between atoms: _376  and  _377
REMARK  154  A    between atoms: _380  and  _382
REMARK  155  A    between atoms: _382  and  _383
REMARK  156  A    between atoms: _382  and  _385
REMARK  157  A    between atoms: _385  and  _386
REMARK  158  A    between atoms: _386  and  _387
REMARK  159  A    between atoms: _387  and  _388
REMARK  160  A    between atoms: _397  and  _399
REMARK  161  A    between atoms: _399  and  _400
REMARK  162  A    between atoms: _402  and  _404
REMARK  163  A    between atoms: _404  and  _405
REMARK  164  A    between atoms: _404  and  _407
REMARK  165  A    between atoms: _407  and  _408
REMARK  166  A    between atoms: _414  and  _416
REMARK  167  A    between atoms: _416  and  _417
REMARK  168  A    between atoms: _416  and  _419
REMARK  169  A    between atoms: _419  and  _420
REMARK  170  A    between atoms: _423  and  _425
REMARK  171  A    between atoms: _425  and  _426
REMARK  172  A    between atoms: _425  and  _428
REMARK  173  A    between atoms: _428  and  _429
REMARK  174  A    between atoms: _434  and  _436
REMARK  175  A    between atoms: _436  and  _437
REMARK  176  A    between atoms: _436  and  _439
REMARK  177  A    between atoms: _439  and  _440
REMARK  178  A    between atoms: _443  and  _445
REMARK  179  A    between atoms: _445  and  _446
REMARK  180  A    between atoms: _445  and  _448
REMARK  181  A    between atoms: _448  and  _449
REMARK  182  A    between atoms: _454  and  _455
REMARK  183  A    between atoms: _457  and  _459
REMARK  184  A    between atoms: _459  and  _460
REMARK  185  A    between atoms: _459  and  _462
REMARK  186  A    between atoms: _462  and  _463
REMARK  187  A    between atoms: _466  and  _468
REMARK  188  A    between atoms: _468  and  _469
REMARK  189  A    between atoms: _468  and  _471
REMARK  190  A    between atoms: _471  and  _472
REMARK  191  A    between atoms: _472  and  _473
REMARK  192  A    between atoms: _476  and  _478
REMARK  193  A    between atoms: _478  and  _479
REMARK  194  A    between atoms: _478  and  _481
REMARK  195  A    between atoms: _481  and  _482
REMARK  196  A    between atoms: _485  and  _487
REMARK  197  A    between atoms: _487  and  _488
REMARK  198  A    between atoms: _490  and  _492
REMARK  199  A    between atoms: _492  and  _493
REMARK  200  A    between atoms: _495  and  _497
REMARK  201  A    between atoms: _497  and  _498
REMARK  202  A    between atoms: _497  and  _500
REMARK  203  A    between atoms: _500  and  _501
REMARK  204  A    between atoms: _501  and  _502
REMARK  205  A    between atoms: _507  and  _509
REMARK  206  A    between atoms: _509  and  _510
REMARK  207  A    between atoms: _513  and  _515
REMARK  208  A    between atoms: _515  and  _516
REMARK  209  A    between atoms: _515  and  _518
REMARK  210  A    between atoms: _518  and  _519
REMARK  211  A    between atoms: _522  and  _524
REMARK  212  A    between atoms: _524  and  _525
REMARK  213  A    between atoms: _524  and  _527
REMARK  214  A    between atoms: _527  and  _528
REMARK  215  A    between atoms: _528  and  _529
REMARK  216  A    between atoms: _534  and  _536
REMARK  217  A    between atoms: _536  and  _537
REMARK  218  A    between atoms: _536  and  _539
REMARK  219  A    between atoms: _539  and  _540
REMARK  220  A    between atoms: _543  and  _545
REMARK  221  A    between atoms: _545  and  _546
REMARK  222  A    between atoms: _545  and  _548
REMARK  223  A    between atoms: _548  and  _549
REMARK  224  A    between atoms: _549  and  _550
REMARK  225  A    between atoms: _550  and  _551
REMARK                            x       y       z     vdW  Elec       q    Type
REMARK                         _______ _______ _______ _____ _____    ______ ____
ROOT
ATOM      1  O   HOH     1      12.082  28.106  50.721  0.00  0.00    +0.000 OA
ENDROOT
TORSDOF 0
REMARK  Name = ../refined-set-2016/4r73/4r73_pocket.pdb
REMARK  225 active torsions:
REMARK  status: ('A' for Active; 'I' for Inactive)
REMARK    1  A    between atoms: _1  and  _3
REMARK    2  A    between atoms: _3  and  _4
REMARK    3  A    between atoms: _3  and  _6
REMARK    4  A    between atoms: _8  and  _10
REMARK    5  A    between atoms: _10  and  _11
REMARK    6  A    between atoms: _10  and  _13
REMARK    7  A    between atoms: _13  and  _14
REMARK    8  A    between atoms: _16  and  _18
REMARK    9  A    between atoms: _18  and  _19
REMARK   10  A    between atoms: _22  and  _24
REMARK   11  A    between atoms: _24  and  _25
REMARK   12  A    between atoms: _24  and  _27
REMARK   13  A    between atoms: _27  and  _28
REMARK   14  A    between atoms: _31  and  _33
REMARK   15  A    between atoms: _33  and  _34
REMARK   16  A    between atoms: _33  and  _36
REMARK   17  A    between atoms: _36  and  _37
REMARK   18  A    between atoms: _42  and  _44
REMARK   19  A    between atoms: _44  and  _45
REMARK   20  A    between atoms: _44  and  _47
REMARK   21  A    between atoms: _47  and  _48
REMARK   22  A    between atoms: _48  and  _49
REMARK   23  A    between atoms: _51  and  _53
REMARK   24  A    between atoms: _53  and  _54
REMARK   25  A    between atoms: _53  and  _56
REMARK   26  A    between atoms: _56  and  _57
REMARK   27  A    between atoms: _57  and  _58
REMARK   28  A    between atoms: _58  and  _59
REMARK   29  A    between atoms: _68  and  _70
REMARK   30  A    between atoms: _70  and  _71
REMARK   31  A    between atoms: _70  and  _73
REMARK   32  A    between atoms: _73  and  _74
REMARK   33  A    between atoms: _79  and  _81
REMARK   34  A    between atoms: _81  and  _82
REMARK   35  A    between atoms: _84  and  _86
REMARK   36  A    between atoms: _86  and  _87
REMARK   37  A    between atoms: _86  and  _89
REMARK   38  A    between atoms: _89  and  _90
REMARK   39  A    between atoms: _92  and  _94
REMARK   40  A    between atoms: _94  and  _95
REMARK   41  A    between atoms: _97  and  _99
REMARK   42  A    between atoms: _99  and  _100
REMARK   43  A    between atoms: _99  and  _102
REMARK   44  A    between atoms: _102  and  _103
REMARK   45  A    between atoms: _105  and  _107
REMARK   46  A    between atoms: _107  and  _108
REMARK   47  A    between atoms: _107  and  _110
REMARK   48  A    between atoms: _110  and  _111
REMARK   49  A    between atoms: _114  and  _116
REMARK   50  A    between atoms: _116  and  _117
REMARK   51  A    between atoms: _116  and  _119
REMARK   52  A    between atoms: _119  and  _120
REMARK   53  A    between atoms: _126  and  _128
REMARK   54  A    between atoms: _128  and  _129
REMARK   55  A    between atoms: _128  and  _131
REMARK   56  A    between atoms: _131  and  _132
REMARK   57  A    between atoms: _142  and  _144
REMARK   58  A    between atoms: _144  and  _145
REMARK   59  A    between atoms: _144  and  _147
REMARK   60  A    between atoms: _147  and  _148
REMARK   61  A    between atoms: _153  and  _154
REMARK   62  A    between atoms: _156  and  _158
REMARK   63  A    between atoms: _158  and  _159
REMARK   64  A    between atoms: _161  and  _163
REMARK   65  A    between atoms: _163  and  _164
REMARK   66  A    between atoms: _166  and  _168
REMARK   67  A    between atoms: _168  and  _169
REMARK   68  A    between atoms: _168  and  _171
REMARK   69  A    between atoms: _171  and  _172
REMARK   70  A    between atoms: _175  and  _177
REMARK   71  A    between atoms: _177  and  _178
REMARK   72  A    between atoms: _177  and  _180
REMARK   73  A    between atoms: _180  and  _181
REMARK   74  A    between atoms: _185  and  _186
REMARK   75  A    between atoms: _191  and  _193
REMARK   76  A    between atoms: _193  and  _194
REMARK   77  A    between atoms: _193  and  _196
REMARK   78  A    between atoms: _196  and  _197
REMARK   79  A    between atoms: _197  and  _198
REMARK   80  A    between atoms: _203  and  _205
REMARK   81  A    between atoms: _205  and  _206
REMARK   82  A    between atoms: _205  and  _208
REMARK   83  A    between atoms: _208  and  _209
REMARK   84  A    between atoms: _214  and  _215
REMARK   85  A    between atoms: _217  and  _219
REMARK   86  A    between atoms: _219  and  _220
REMARK   87  A    between atoms: _219  and  _222
REMARK   88  A    between atoms: _222  and  _223
REMARK   89  A    between atoms: _226  and  _228
REMARK   90  A    between atoms: _228  and  _229
REMARK   91  A    between atoms: _231  and  _233
REMARK   92  A    between atoms: _233  and  _234
REMARK   93  A    between atoms: _233  and  _236
REMARK   94  A    between atoms: _236  and  _237
REMARK   95  A    between atoms: _240  and  _242
REMARK   96  A    between atoms: _242  and  _243
REMARK   97  A    between atoms: _246  and  _248
REMARK   98  A    between atoms: _248  and  _249
REMARK   99  A    between atoms: _248  and  _251
REMARK  100  A    between atoms: _251  and  _252
REMARK  101  A    between atoms: _256  and  _257
REMARK  102  A    between atoms: _262  and  _264
REMARK  103  A    between atoms: _264  and  _265
REMARK  104  A    between atoms: _264  and  _267
REMARK  105  A    between atoms: _267  and  _268
REMARK  106  A    between atoms: _270  and  _272
REMARK  107  A    between atoms: _272  and  _273
REMARK  108  A    between atoms: _272  and  _275
REMARK  109  A    between atoms: _275  and  _276
REMARK  110  A    between atoms: _278  and  _280
REMARK  111  A    between atoms: _280  and  _281
REMARK  112  A    between atoms: _283  and  _285
REMARK  113  A    between atoms: _285  and  _286
REMARK  114  A    between atoms: _285  and  _288
REMARK  115  A    between atoms: _288  and  _289
REMARK  116  A    between atoms: _292  and  _294
REMARK  117  A    between atoms: _294  and  _295
REMARK  118  A    between atoms: _298  and  _300
REMARK  119  A    between atoms: _300  and  _301
REMARK  120  A    between atoms: _300  and  _303
REMARK  121  A    between atoms: _303  and  _304
REMARK  122  A    between atoms: _309  and  _310
REMARK  123  A    between atoms: _312  and  _314
REMARK  124  A    between atoms: _314  and  _315
REMARK  125  A    between atoms: _314  and  _317
REMARK  126  A    between atoms: _317  and  _318
REMARK  127  A    between atoms: _321  and  _323
REMARK  128  A    between atoms: _323  and  _324
REMARK  129  A    between atoms: _323  and  _326
REMARK  130  A    between atoms: _326  and  _327
REMARK  131  A    between atoms: _330  and  _332
REMARK  132  A    between atoms: _332  and  _333
REMARK  133  A    between atoms: _332  and  _335
REMARK  134  A    between atoms: _335  and  _336
REMARK  135  A    between atoms: _336  and  _337
REMARK  136  A    between atoms: _337  and  _338
REMARK  137  A    between atoms: _338  and  _339
REMARK  138  A    between atoms: _343  and  _345
REMARK  139  A    between atoms: _345  and  _346
REMARK  140  A    between atoms: _345  and  _348
REMARK  141  A    between atoms: _348  and  _349
REMARK  142  A    between atoms: _351  and  _353
REMARK  143  A    between atoms: _353  and  _354
REMARK  144  A    between atoms: _356  and  _358
REMARK  145  A    between atoms: _358  and  _359
REMARK  146  A    between atoms: _358  and  _361
REMARK  147  A    between atoms: _361  and  _362
REMARK  148  A    between atoms: _365  and  _367
REMARK  149  A    between atoms: _367  and  _368
REMARK  150  A    between atoms: _367  and  _370
REMARK  151  A    between atoms: _370  and  _371
REMARK  152  A    between atoms: _374  and  _376
REMARK  153  A    between atoms: _376  and  _377
REMARK  154  A    between atoms: _380  and  _382
REMARK  155  A    between atoms: _382  and  _383
REMARK  156  A    between atoms: _382  and  _385
REMARK  157  A    between atoms: _385  and  _386
REMARK  158  A    between atoms: _386  and  _387
REMARK  159  A    between atoms: _387  and  _388
REMARK  160  A    between atoms: _397  and  _399
REMARK  161  A    between atoms: _399  and  _400
REMARK  162  A    between atoms: _402  and  _404
REMARK  163  A    between atoms: _404  and  _405
REMARK  164  A    between atoms: _404  and  _407
REMARK  165  A    between atoms: _407  and  _408
REMARK  166  A    between atoms: _414  and  _416
REMARK  167  A    between atoms: _416  and  _417
REMARK  168  A    between atoms: _416  and  _419
REMARK  169  A    between atoms: _419  and  _420
REMARK  170  A    between atoms: _423  and  _425
REMARK  171  A    between atoms: _425  and  _426
REMARK  172  A    between atoms: _425  and  _428
REMARK  173  A    between atoms: _428  and  _429
REMARK  174  A    between atoms: _434  and  _436
REMARK  175  A    between atoms: _436  and  _437
REMARK  176  A    between atoms: _436  and  _439
REMARK  177  A    between atoms: _439  and  _440
REMARK  178  A    between atoms: _443  and  _445
REMARK  179  A    between atoms: _445  and  _446
REMARK  180  A    between atoms: _445  and  _448
REMARK  181  A    between atoms: _448  and  _449
REMARK  182  A    between atoms: _454  and  _455
REMARK  183  A    between atoms: _457  and  _459
REMARK  184  A    between atoms: _459  and  _460
REMARK  185  A    between atoms: _459  and  _462
REMARK  186  A    between atoms: _462  and  _463
REMARK  187  A    between atoms: _466  and  _468
REMARK  188  A    between atoms: _468  and  _469
REMARK  189  A    between atoms: _468  and  _471
REMARK  190  A    between atoms: _471  and  _472
REMARK  191  A    between atoms: _472  and  _473
REMARK  192  A    between atoms: _476  and  _478
REMARK  193  A    between atoms: _478  and  _479
REMARK  194  A    between atoms: _478  and  _481
REMARK  195  A    between atoms: _481  and  _482
REMARK  196  A    between atoms: _485  and  _487
REMARK  197  A    between atoms: _487  and  _488
REMARK  198  A    between atoms: _490  and  _492
REMARK  199  A    between atoms: _492  and  _493
REMARK  200  A    between atoms: _495  and  _497
REMARK  201  A    between atoms: _497  and  _498
REMARK  202  A    between atoms: _497  and  _500
REMARK  203  A    between atoms: _500  and  _501
REMARK  204  A    between atoms: _501  and  _502
REMARK  205  A    between atoms: _507  and  _509
REMARK  206  A    between atoms: _509  and  _510
REMARK  207  A    between atoms: _513  and  _515
REMARK  208  A    between atoms: _515  and  _516
REMARK  209  A    between atoms: _515  and  _518
REMARK  210  A    between atoms: _518  and  _519
REMARK  211  A    between atoms: _522  and  _524
REMARK  212  A    between atoms: _524  and  _525
REMARK  213  A    between atoms: _524  and  _527
REMARK  214  A    between atoms: _527  and  _528
REMARK  215  A    between atoms: _528  and  _529
REMARK  216  A    between atoms: _534  and  _536
REMARK  217  A    between atoms: _536  and  _537
REMARK  218  A    between atoms: _536  and  _539
REMARK  219  A    between atoms: _539  and  _540
REMARK  220  A    between atoms: _543  and  _545
REMARK  221  A    between atoms: _545  and  _546
REMARK  222  A    between atoms: _545  and  _548
REMARK  223  A    between atoms: _548  and  _549
REMARK  224  A    between atoms: _549  and  _550
REMARK  225  A    between atoms: _550  and  _551
REMARK                            x       y       z     vdW  Elec       q    Type
REMARK                         _______ _______ _______ _____ _____    ______ ____
ROOT
ATOM      1  O   HOH     1       3.639  26.706  48.300  0.00  0.00    +0.000 OA
ENDROOT
TORSDOF 0
REMARK  Name = ../refined-set-2016/4r73/4r73_pocket.pdb
REMARK  225 active torsions:
REMARK  status: ('A' for Active; 'I' for Inactive)
REMARK    1  A    between atoms: _1  and  _3
REMARK    2  A    between atoms: _3  and  _4
REMARK    3  A    between atoms: _3  and  _6
REMARK    4  A    between atoms: _8  and  _10
REMARK    5  A    between atoms: _10  and  _11
REMARK    6  A    between atoms: _10  and  _13
REMARK    7  A    between atoms: _13  and  _14
REMARK    8  A    between atoms: _16  and  _18
REMARK    9  A    between atoms: _18  and  _19
REMARK   10  A    between atoms: _22  and  _24
REMARK   11  A    between atoms: _24  and  _25
REMARK   12  A    between atoms: _24  and  _27
REMARK   13  A    between atoms: _27  and  _28
REMARK   14  A    between atoms: _31  and  _33
REMARK   15  A    between atoms: _33  and  _34
REMARK   16  A    between atoms: _33  and  _36
REMARK   17  A    between atoms: _36  and  _37
REMARK   18  A    between atoms: _42  and  _44
REMARK   19  A    between atoms: _44  and  _45
REMARK   20  A    between atoms: _44  and  _47
REMARK   21  A    between atoms: _47  and  _48
REMARK   22  A    between atoms: _48  and  _49
REMARK   23  A    between atoms: _51  and  _53
REMARK   24  A    between atoms: _53  and  _54
REMARK   25  A    between atoms: _53  and  _56
REMARK   26  A    between atoms: _56  and  _57
REMARK   27  A    between atoms: _57  and  _58
REMARK   28  A    between atoms: _58  and  _59
REMARK   29  A    between atoms: _68  and  _70
REMARK   30  A    between atoms: _70  and  _71
REMARK   31  A    between atoms: _70  and  _73
REMARK   32  A    between atoms: _73  and  _74
REMARK   33  A    between atoms: _79  and  _81
REMARK   34  A    between atoms: _81  and  _82
REMARK   35  A    between atoms: _84  and  _86
REMARK   36  A    between atoms: _86  and  _87
REMARK   37  A    between atoms: _86  and  _89
REMARK   38  A    between atoms: _89  and  _90
REMARK   39  A    between atoms: _92  and  _94
REMARK   40  A    between atoms: _94  and  _95
REMARK   41  A    between atoms: _97  and  _99
REMARK   42  A    between atoms: _99  and  _100
REMARK   43  A    between atoms: _99  and  _102
REMARK   44  A    between atoms: _102  and  _103
REMARK   45  A    between atoms: _105  and  _107
REMARK   46  A    between atoms: _107  and  _108
REMARK   47  A    between atoms: _107  and  _110
REMARK   48  A    between atoms: _110  and  _111
REMARK   49  A    between atoms: _114  and  _116
REMARK   50  A    between atoms: _116  and  _117
REMARK   51  A    between atoms: _116  and  _119
REMARK   52  A    between atoms: _119  and  _120
REMARK   53  A    between atoms: _126  and  _128
REMARK   54  A    between atoms: _128  and  _129
REMARK   55  A    between atoms: _128  and  _131
REMARK   56  A    between atoms: _131  and  _132
REMARK   57  A    between atoms: _142  and  _144
REMARK   58  A    between atoms: _144  and  _145
REMARK   59  A    between atoms: _144  and  _147
REMARK   60  A    between atoms: _147  and  _148
REMARK   61  A    between atoms: _153  and  _154
REMARK   62  A    between atoms: _156  and  _158
REMARK   63  A    between atoms: _158  and  _159
REMARK   64  A    between atoms: _161  and  _163
REMARK   65  A    between atoms: _163  and  _164
REMARK   66  A    between atoms: _166  and  _168
REMARK   67  A    between atoms: _168  and  _169
REMARK   68  A    between atoms: _168  and  _171
REMARK   69  A    between atoms: _171  and  _172
REMARK   70  A    between atoms: _175  and  _177
REMARK   71  A    between atoms: _177  and  _178
REMARK   72  A    between atoms: _177  and  _180
REMARK   73  A    between atoms: _180  and  _181
REMARK   74  A    between atoms: _185  and  _186
REMARK   75  A    between atoms: _191  and  _193
REMARK   76  A    between atoms: _193  and  _194
REMARK   77  A    between atoms: _193  and  _196
REMARK   78  A    between atoms: _196  and  _197
REMARK   79  A    between atoms: _197  and  _198
REMARK   80  A    between atoms: _203  and  _205
REMARK   81  A    between atoms: _205  and  _206
REMARK   82  A    between atoms: _205  and  _208
REMARK   83  A    between atoms: _208  and  _209
REMARK   84  A    between atoms: _214  and  _215
REMARK   85  A    between atoms: _217  and  _219
REMARK   86  A    between atoms: _219  and  _220
REMARK   87  A    between atoms: _219  and  _222
REMARK   88  A    between atoms: _222  and  _223
REMARK   89  A    between atoms: _226  and  _228
REMARK   90  A    between atoms: _228  and  _229
REMARK   91  A    between atoms: _231  and  _233
REMARK   92  A    between atoms: _233  and  _234
REMARK   93  A    between atoms: _233  and  _236
REMARK   94  A    between atoms: _236  and  _237
REMARK   95  A    between atoms: _240  and  _242
REMARK   96  A    between atoms: _242  and  _243
REMARK   97  A    between atoms: _246  and  _248
REMARK   98  A    between atoms: _248  and  _249
REMARK   99  A    between atoms: _248  and  _251
REMARK  100  A    between atoms: _251  and  _252
REMARK  101  A    between atoms: _256  and  _257
REMARK  102  A    between atoms: _262  and  _264
REMARK  103  A    between atoms: _264  and  _265
REMARK  104  A    between atoms: _264  and  _267
REMARK  105  A    between atoms: _267  and  _268
REMARK  106  A    between atoms: _270  and  _272
REMARK  107  A    between atoms: _272  and  _273
REMARK  108  A    between atoms: _272  and  _275
REMARK  109  A    between atoms: _275  and  _276
REMARK  110  A    between atoms: _278  and  _280
REMARK  111  A    between atoms: _280  and  _281
REMARK  112  A    between atoms: _283  and  _285
REMARK  113  A    between atoms: _285  and  _286
REMARK  114  A    between atoms: _285  and  _288
REMARK  115  A    between atoms: _288  and  _289
REMARK  116  A    between atoms: _292  and  _294
REMARK  117  A    between atoms: _294  and  _295
REMARK  118  A    between atoms: _298  and  _300
REMARK  119  A    between atoms: _300  and  _301
REMARK  120  A    between atoms: _300  and  _303
REMARK  121  A    between atoms: _303  and  _304
REMARK  122  A    between atoms: _309  and  _310
REMARK  123  A    between atoms: _312  and  _314
REMARK  124  A    between atoms: _314  and  _315
REMARK  125  A    between atoms: _314  and  _317
REMARK  126  A    between atoms: _317  and  _318
REMARK  127  A    between atoms: _321  and  _323
REMARK  128  A    between atoms: _323  and  _324
REMARK  129  A    between atoms: _323  and  _326
REMARK  130  A    between atoms: _326  and  _327
REMARK  131  A    between atoms: _330  and  _332
REMARK  132  A    between atoms: _332  and  _333
REMARK  133  A    between atoms: _332  and  _335
REMARK  134  A    between atoms: _335  and  _336
REMARK  135  A    between atoms: _336  and  _337
REMARK  136  A    between atoms: _337  and  _338
REMARK  137  A    between atoms: _338  and  _339
REMARK  138  A    between atoms: _343  and  _345
REMARK  139  A    between atoms: _345  and  _346
REMARK  140  A    between atoms: _345  and  _348
REMARK  141  A    between atoms: _348  and  _349
REMARK  142  A    between atoms: _351  and  _353
REMARK  143  A    between atoms: _353  and  _354
REMARK  144  A    between atoms: _356  and  _358
REMARK  145  A    between atoms: _358  and  _359
REMARK  146  A    between atoms: _358  and  _361
REMARK  147  A    between atoms: _361  and  _362
REMARK  148  A    between atoms: _365  and  _367
REMARK  149  A    between atoms: _367  and  _368
REMARK  150  A    between atoms: _367  and  _370
REMARK  151  A    between atoms: _370  and  _371
REMARK  152  A    between atoms: _374  and  _376
REMARK  153  A    between atoms: _376  and  _377
REMARK  154  A    between atoms: _380  and  _382
REMARK  155  A    between atoms: _382  and  _383
REMARK  156  A    between atoms: _382  and  _385
REMARK  157  A    between atoms: _385  and  _386
REMARK  158  A    between atoms: _386  and  _387
REMARK  159  A    between atoms: _387  and  _388
REMARK  160  A    between atoms: _397  and  _399
REMARK  161  A    between atoms: _399  and  _400
REMARK  162  A    between atoms: _402  and  _404
REMARK  163  A    between atoms: _404  and  _405
REMARK  164  A    between atoms: _404  and  _407
REMARK  165  A    between atoms: _407  and  _408
REMARK  166  A    between atoms: _414  and  _416
REMARK  167  A    between atoms: _416  and  _417
REMARK  168  A    between atoms: _416  and  _419
REMARK  169  A    between atoms: _419  and  _420
REMARK  170  A    between atoms: _423  and  _425
REMARK  171  A    between atoms: _425  and  _426
REMARK  172  A    between atoms: _425  and  _428
REMARK  173  A    between atoms: _428  and  _429
REMARK  174  A    between atoms: _434  and  _436
REMARK  175  A    between atoms: _436  and  _437
REMARK  176  A    between atoms: _436  and  _439
REMARK  177  A    between atoms: _439  and  _440
REMARK  178  A    between atoms: _443  and  _445
REMARK  179  A    between atoms: _445  and  _446
REMARK  180  A    between atoms: _445  and  _448
REMARK  181  A    between atoms: _448  and  _449
REMARK  182  A    between atoms: _454  and  _455
REMARK  183  A    between atoms: _457  and  _459
REMARK  184  A    between atoms: _459  and  _460
REMARK  185  A    between atoms: _459  and  _462
REMARK  186  A    between atoms: _462  and  _463
REMARK  187  A    between atoms: _466  and  _468
REMARK  188  A    between atoms: _468  and  _469
REMARK  189  A    between atoms: _468  and  _471
REMARK  190  A    between atoms: _471  and  _472
REMARK  191  A    between atoms: _472  and  _473
REMARK  192  A    between atoms: _476  and  _478
REMARK  193  A    between atoms: _478  and  _479
REMARK  194  A    between atoms: _478  and  _481
REMARK  195  A    between atoms: _481  and  _482
REMARK  196  A    between atoms: _485  and  _487
REMARK  197  A    between atoms: _487  and  _488
REMARK  198  A    between atoms: _490  and  _492
REMARK  199  A    between atoms: _492  and  _493
REMARK  200  A    between atoms: _495  and  _497
REMARK  201  A    between atoms: _497  and  _498
REMARK  202  A    between atoms: _497  and  _500
REMARK  203  A    between atoms: _500  and  _501
REMARK  204  A    between atoms: _501  and  _502
REMARK  205  A    between atoms: _507  and  _509
REMARK  206  A    between atoms: _509  and  _510
REMARK  207  A    between atoms: _513  and  _515
REMARK  208  A    between atoms: _515  and  _516
REMARK  209  A    between atoms: _515  and  _518
REMARK  210  A    between atoms: _518  and  _519
REMARK  211  A    between atoms: _522  and  _524
REMARK  212  A    between atoms: _524  and  _525
REMARK  213  A    between atoms: _524  and  _527
REMARK  214  A    between atoms: _527  and  _528
REMARK  215  A    between atoms: _528  and  _529
REMARK  216  A    between atoms: _534  and  _536
REMARK  217  A    between atoms: _536  and  _537
REMARK  218  A    between atoms: _536  and  _539
REMARK  219  A    between atoms: _539  and  _540
REMARK  220  A    between atoms: _543  and  _545
REMARK  221  A    between atoms: _545  and  _546
REMARK  222  A    between atoms: _545  and  _548
REMARK  223  A    between atoms: _548  and  _549
REMARK  224  A    between atoms: _549  and  _550
REMARK  225  A    between atoms: _550  and  _551
REMARK                            x       y       z     vdW  Elec       q    Type
REMARK                         _______ _______ _______ _____ _____    ______ ____
ROOT
ATOM      1  O   HOH     1       4.861  23.291  51.227  0.00  0.00    +0.000 OA
ENDROOT
TORSDOF 0
REMARK  Name = ../refined-set-2016/4r73/4r73_pocket.pdb
REMARK  225 active torsions:
REMARK  status: ('A' for Active; 'I' for Inactive)
REMARK    1  A    between atoms: _1  and  _3
REMARK    2  A    between atoms: _3  and  _4
REMARK    3  A    between atoms: _3  and  _6
REMARK    4  A    between atoms: _8  and  _10
REMARK    5  A    between atoms: _10  and  _11
REMARK    6  A    between atoms: _10  and  _13
REMARK    7  A    between atoms: _13  and  _14
REMARK    8  A    between atoms: _16  and  _18
REMARK    9  A    between atoms: _18  and  _19
REMARK   10  A    between atoms: _22  and  _24
REMARK   11  A    between atoms: _24  and  _25
REMARK   12  A    between atoms: _24  and  _27
REMARK   13  A    between atoms: _27  and  _28
REMARK   14  A    between atoms: _31  and  _33
REMARK   15  A    between atoms: _33  and  _34
REMARK   16  A    between atoms: _33  and  _36
REMARK   17  A    between atoms: _36  and  _37
REMARK   18  A    between atoms: _42  and  _44
REMARK   19  A    between atoms: _44  and  _45
REMARK   20  A    between atoms: _44  and  _47
REMARK   21  A    between atoms: _47  and  _48
REMARK   22  A    between atoms: _48  and  _49
REMARK   23  A    between atoms: _51  and  _53
REMARK   24  A    between atoms: _53  and  _54
REMARK   25  A    between atoms: _53  and  _56
REMARK   26  A    between atoms: _56  and  _57
REMARK   27  A    between atoms: _57  and  _58
REMARK   28  A    between atoms: _58  and  _59
REMARK   29  A    between atoms: _68  and  _70
REMARK   30  A    between atoms: _70  and  _71
REMARK   31  A    between atoms: _70  and  _73
REMARK   32  A    between atoms: _73  and  _74
REMARK   33  A    between atoms: _79  and  _81
REMARK   34  A    between atoms: _81  and  _82
REMARK   35  A    between atoms: _84  and  _86
REMARK   36  A    between atoms: _86  and  _87
REMARK   37  A    between atoms: _86  and  _89
REMARK   38  A    between atoms: _89  and  _90
REMARK   39  A    between atoms: _92  and  _94
REMARK   40  A    between atoms: _94  and  _95
REMARK   41  A    between atoms: _97  and  _99
REMARK   42  A    between atoms: _99  and  _100
REMARK   43  A    between atoms: _99  and  _102
REMARK   44  A    between atoms: _102  and  _103
REMARK   45  A    between atoms: _105  and  _107
REMARK   46  A    between atoms: _107  and  _108
REMARK   47  A    between atoms: _107  and  _110
REMARK   48  A    between atoms: _110  and  _111
REMARK   49  A    between atoms: _114  and  _116
REMARK   50  A    between atoms: _116  and  _117
REMARK   51  A    between atoms: _116  and  _119
REMARK   52  A    between atoms: _119  and  _120
REMARK   53  A    between atoms: _126  and  _128
REMARK   54  A    between atoms: _128  and  _129
REMARK   55  A    between atoms: _128  and  _131
REMARK   56  A    between atoms: _131  and  _132
REMARK   57  A    between atoms: _142  and  _144
REMARK   58  A    between atoms: _144  and  _145
REMARK   59  A    between atoms: _144  and  _147
REMARK   60  A    between atoms: _147  and  _148
REMARK   61  A    between atoms: _153  and  _154
REMARK   62  A    between atoms: _156  and  _158
REMARK   63  A    between atoms: _158  and  _159
REMARK   64  A    between atoms: _161  and  _163
REMARK   65  A    between atoms: _163  and  _164
REMARK   66  A    between atoms: _166  and  _168
REMARK   67  A    between atoms: _168  and  _169
REMARK   68  A    between atoms: _168  and  _171
REMARK   69  A    between atoms: _171  and  _172
REMARK   70  A    between atoms: _175  and  _177
REMARK   71  A    between atoms: _177  and  _178
REMARK   72  A    between atoms: _177  and  _180
REMARK   73  A    between atoms: _180  and  _181
REMARK   74  A    between atoms: _185  and  _186
REMARK   75  A    between atoms: _191  and  _193
REMARK   76  A    between atoms: _193  and  _194
REMARK   77  A    between atoms: _193  and  _196
REMARK   78  A    between atoms: _196  and  _197
REMARK   79  A    between atoms: _197  and  _198
REMARK   80  A    between atoms: _203  and  _205
REMARK   81  A    between atoms: _205  and  _206
REMARK   82  A    between atoms: _205  and  _208
REMARK   83  A    between atoms: _208  and  _209
REMARK   84  A    between atoms: _214  and  _215
REMARK   85  A    between atoms: _217  and  _219
REMARK   86  A    between atoms: _219  and  _220
REMARK   87  A    between atoms: _219  and  _222
REMARK   88  A    between atoms: _222  and  _223
REMARK   89  A    between atoms: _226  and  _228
REMARK   90  A    between atoms: _228  and  _229
REMARK   91  A    between atoms: _231  and  _233
REMARK   92  A    between atoms: _233  and  _234
REMARK   93  A    between atoms: _233  and  _236
REMARK   94  A    between atoms: _236  and  _237
REMARK   95  A    between atoms: _240  and  _242
REMARK   96  A    between atoms: _242  and  _243
REMARK   97  A    between atoms: _246  and  _248
REMARK   98  A    between atoms: _248  and  _249
REMARK   99  A    between atoms: _248  and  _251
REMARK  100  A    between atoms: _251  and  _252
REMARK  101  A    between atoms: _256  and  _257
REMARK  102  A    between atoms: _262  and  _264
REMARK  103  A    between atoms: _264  and  _265
REMARK  104  A    between atoms: _264  and  _267
REMARK  105  A    between atoms: _267  and  _268
REMARK  106  A    between atoms: _270  and  _272
REMARK  107  A    between atoms: _272  and  _273
REMARK  108  A    between atoms: _272  and  _275
REMARK  109  A    between atoms: _275  and  _276
REMARK  110  A    between atoms: _278  and  _280
REMARK  111  A    between atoms: _280  and  _281
REMARK  112  A    between atoms: _283  and  _285
REMARK  113  A    between atoms: _285  and  _286
REMARK  114  A    between atoms: _285  and  _288
REMARK  115  A    between atoms: _288  and  _289
REMARK  116  A    between atoms: _292  and  _294
REMARK  117  A    between atoms: _294  and  _295
REMARK  118  A    between atoms: _298  and  _300
REMARK  119  A    between atoms: _300  and  _301
REMARK  120  A    between atoms: _300  and  _303
REMARK  121  A    between atoms: _303  and  _304
REMARK  122  A    between atoms: _309  and  _310
REMARK  123  A    between atoms: _312  and  _314
REMARK  124  A    between atoms: _314  and  _315
REMARK  125  A    between atoms: _314  and  _317
REMARK  126  A    between atoms: _317  and  _318
REMARK  127  A    between atoms: _321  and  _323
REMARK  128  A    between atoms: _323  and  _324
REMARK  129  A    between atoms: _323  and  _326
REMARK  130  A    between atoms: _326  and  _327
REMARK  131  A    between atoms: _330  and  _332
REMARK  132  A    between atoms: _332  and  _333
REMARK  133  A    between atoms: _332  and  _335
REMARK  134  A    between atoms: _335  and  _336
REMARK  135  A    between atoms: _336  and  _337
REMARK  136  A    between atoms: _337  and  _338
REMARK  137  A    between atoms: _338  and  _339
REMARK  138  A    between atoms: _343  and  _345
REMARK  139  A    between atoms: _345  and  _346
REMARK  140  A    between atoms: _345  and  _348
REMARK  141  A    between atoms: _348  and  _349
REMARK  142  A    between atoms: _351  and  _353
REMARK  143  A    between atoms: _353  and  _354
REMARK  144  A    between atoms: _356  and  _358
REMARK  145  A    between atoms: _358  and  _359
REMARK  146  A    between atoms: _358  and  _361
REMARK  147  A    between atoms: _361  and  _362
REMARK  148  A    between atoms: _365  and  _367
REMARK  149  A    between atoms: _367  and  _368
REMARK  150  A    between atoms: _367  and  _370
REMARK  151  A    between atoms: _370  and  _371
REMARK  152  A    between atoms: _374  and  _376
REMARK  153  A    between atoms: _376  and  _377
REMARK  154  A    between atoms: _380  and  _382
REMARK  155  A    between atoms: _382  and  _383
REMARK  156  A    between atoms: _382  and  _385
REMARK  157  A    between atoms: _385  and  _386
REMARK  158  A    between atoms: _386  and  _387
REMARK  159  A    between atoms: _387  and  _388
REMARK  160  A    between atoms: _397  and  _399
REMARK  161  A    between atoms: _399  and  _400
REMARK  162  A    between atoms: _402  and  _404
REMARK  163  A    between atoms: _404  and  _405
REMARK  164  A    between atoms: _404  and  _407
REMARK  165  A    between atoms: _407  and  _408
REMARK  166  A    between atoms: _414  and  _416
REMARK  167  A    between atoms: _416  and  _417
REMARK  168  A    between atoms: _416  and  _419
REMARK  169  A    between atoms: _419  and  _420
REMARK  170  A    between atoms: _423  and  _425
REMARK  171  A    between atoms: _425  and  _426
REMARK  172  A    between atoms: _425  and  _428
REMARK  173  A    between atoms: _428  and  _429
REMARK  174  A    between atoms: _434  and  _436
REMARK  175  A    between atoms: _436  and  _437
REMARK  176  A    between atoms: _436  and  _439
REMARK  177  A    between atoms: _439  and  _440
REMARK  178  A    between atoms: _443  and  _445
REMARK  179  A    between atoms: _445  and  _446
REMARK  180  A    between atoms: _445  and  _448
REMARK  181  A    between atoms: _448  and  _449
REMARK  182  A    between atoms: _454  and  _455
REMARK  183  A    between atoms: _457  and  _459
REMARK  184  A    between atoms: _459  and  _460
REMARK  185  A    between atoms: _459  and  _462
REMARK  186  A    between atoms: _462  and  _463
REMARK  187  A    between atoms: _466  and  _468
REMARK  188  A    between atoms: _468  and  _469
REMARK  189  A    between atoms: _468  and  _471
REMARK  190  A    between atoms: _471  and  _472
REMARK  191  A    between atoms: _472  and  _473
REMARK  192  A    between atoms: _476  and  _478
REMARK  193  A    between atoms: _478  and  _479
REMARK  194  A    between atoms: _478  and  _481
REMARK  195  A    between atoms: _481  and  _482
REMARK  196  A    between atoms: _485  and  _487
REMARK  197  A    between atoms: _487  and  _488
REMARK  198  A    between atoms: _490  and  _492
REMARK  199  A    between atoms: _492  and  _493
REMARK  200  A    between atoms: _495  and  _497
REMARK  201  A    between atoms: _497  and  _498
REMARK  202  A    between atoms: _497  and  _500
REMARK  203  A    between atoms: _500  and  _501
REMARK  204  A    between atoms: _501  and  _502
REMARK  205  A    between atoms: _507  and  _509
REMARK  206  A    between atoms: _509  and  _510
REMARK  207  A    between atoms: _513  and  _515
REMARK  208  A    between atoms: _515  and  _516
REMARK  209  A    between atoms: _515  and  _518
REMARK  210  A    between atoms: _518  and  _519
REMARK  211  A    between atoms: _522  and  _524
REMARK  212  A    between atoms: _524  and  _525
REMARK  213  A    between atoms: _524  and  _527
REMARK  214  A    between atoms: _527  and  _528
REMARK  215  A    between atoms: _528  and  _529
REMARK  216  A    between atoms: _534  and  _536
REMARK  217  A    between atoms: _536  and  _537
REMARK  218  A    between atoms: _536  and  _539
REMARK  219  A    between atoms: _539  and  _540
REMARK  220  A    between atoms: _543  and  _545
REMARK  221  A    between atoms: _545  and  _546
REMARK  222  A    between atoms: _545  and  _548
REMARK  223  A    between atoms: _548  and  _549
REMARK  224  A    between atoms: _549  and  _550
REMARK  225  A    between atoms: _550  and  _551
REMARK                            x       y       z     vdW  Elec       q    Type
REMARK                         _______ _______ _______ _____ _____    ______ ____
ROOT
ATOM      1  O   HOH     1      22.553  29.240  48.136  0.00  0.00    +0.000 OA
ENDROOT
TORSDOF 0
REMARK  Name = ../refined-set-2016/4r73/4r73_pocket.pdb
REMARK  225 active torsions:
REMARK  status: ('A' for Active; 'I' for Inactive)
REMARK    1  A    between atoms: _1  and  _3
REMARK    2  A    between atoms: _3  and  _4
REMARK    3  A    between atoms: _3  and  _6
REMARK    4  A    between atoms: _8  and  _10
REMARK    5  A    between atoms: _10  and  _11
REMARK    6  A    between atoms: _10  and  _13
REMARK    7  A    between atoms: _13  and  _14
REMARK    8  A    between atoms: _16  and  _18
REMARK    9  A    between atoms: _18  and  _19
REMARK   10  A    between atoms: _22  and  _24
REMARK   11  A    between atoms: _24  and  _25
REMARK   12  A    between atoms: _24  and  _27
REMARK   13  A    between atoms: _27  and  _28
REMARK   14  A    between atoms: _31  and  _33
REMARK   15  A    between atoms: _33  and  _34
REMARK   16  A    between atoms: _33  and  _36
REMARK   17  A    between atoms: _36  and  _37
REMARK   18  A    between atoms: _42  and  _44
REMARK   19  A    between atoms: _44  and  _45
REMARK   20  A    between atoms: _44  and  _47
REMARK   21  A    between atoms: _47  and  _48
REMARK   22  A    between atoms: _48  and  _49
REMARK   23  A    between atoms: _51  and  _53
REMARK   24  A    between atoms: _53  and  _54
REMARK   25  A    between atoms: _53  and  _56
REMARK   26  A    between atoms: _56  and  _57
REMARK   27  A    between atoms: _57  and  _58
REMARK   28  A    between atoms: _58  and  _59
REMARK   29  A    between atoms: _68  and  _70
REMARK   30  A    between atoms: _70  and  _71
REMARK   31  A    between atoms: _70  and  _73
REMARK   32  A    between atoms: _73  and  _74
REMARK   33  A    between atoms: _79  and  _81
REMARK   34  A    between atoms: _81  and  _82
REMARK   35  A    between atoms: _84  and  _86
REMARK   36  A    between atoms: _86  and  _87
REMARK   37  A    between atoms: _86  and  _89
REMARK   38  A    between atoms: _89  and  _90
REMARK   39  A    between atoms: _92  and  _94
REMARK   40  A    between atoms: _94  and  _95
REMARK   41  A    between atoms: _97  and  _99
REMARK   42  A    between atoms: _99  and  _100
REMARK   43  A    between atoms: _99  and  _102
REMARK   44  A    between atoms: _102  and  _103
REMARK   45  A    between atoms: _105  and  _107
REMARK   46  A    between atoms: _107  and  _108
REMARK   47  A    between atoms: _107  and  _110
REMARK   48  A    between atoms: _110  and  _111
REMARK   49  A    between atoms: _114  and  _116
REMARK   50  A    between atoms: _116  and  _117
REMARK   51  A    between atoms: _116  and  _119
REMARK   52  A    between atoms: _119  and  _120
REMARK   53  A    between atoms: _126  and  _128
REMARK   54  A    between atoms: _128  and  _129
REMARK   55  A    between atoms: _128  and  _131
REMARK   56  A    between atoms: _131  and  _132
REMARK   57  A    between atoms: _142  and  _144
REMARK   58  A    between atoms: _144  and  _145
REMARK   59  A    between atoms: _144  and  _147
REMARK   60  A    between atoms: _147  and  _148
REMARK   61  A    between atoms: _153  and  _154
REMARK   62  A    between atoms: _156  and  _158
REMARK   63  A    between atoms: _158  and  _159
REMARK   64  A    between atoms: _161  and  _163
REMARK   65  A    between atoms: _163  and  _164
REMARK   66  A    between atoms: _166  and  _168
REMARK   67  A    between atoms: _168  and  _169
REMARK   68  A    between atoms: _168  and  _171
REMARK   69  A    between atoms: _171  and  _172
REMARK   70  A    between atoms: _175  and  _177
REMARK   71  A    between atoms: _177  and  _178
REMARK   72  A    between atoms: _177  and  _180
REMARK   73  A    between atoms: _180  and  _181
REMARK   74  A    between atoms: _185  and  _186
REMARK   75  A    between atoms: _191  and  _193
REMARK   76  A    between atoms: _193  and  _194
REMARK   77  A    between atoms: _193  and  _196
REMARK   78  A    between atoms: _196  and  _197
REMARK   79  A    between atoms: _197  and  _198
REMARK   80  A    between atoms: _203  and  _205
REMARK   81  A    between atoms: _205  and  _206
REMARK   82  A    between atoms: _205  and  _208
REMARK   83  A    between atoms: _208  and  _209
REMARK   84  A    between atoms: _214  and  _215
REMARK   85  A    between atoms: _217  and  _219
REMARK   86  A    between atoms: _219  and  _220
REMARK   87  A    between atoms: _219  and  _222
REMARK   88  A    between atoms: _222  and  _223
REMARK   89  A    between atoms: _226  and  _228
REMARK   90  A    between atoms: _228  and  _229
REMARK   91  A    between atoms: _231  and  _233
REMARK   92  A    between atoms: _233  and  _234
REMARK   93  A    between atoms: _233  and  _236
REMARK   94  A    between atoms: _236  and  _237
REMARK   95  A    between atoms: _240  and  _242
REMARK   96  A    between atoms: _242  and  _243
REMARK   97  A    between atoms: _246  and  _248
REMARK   98  A    between atoms: _248  and  _249
REMARK   99  A    between atoms: _248  and  _251
REMARK  100  A    between atoms: _251  and  _252
REMARK  101  A    between atoms: _256  and  _257
REMARK  102  A    between atoms: _262  and  _264
REMARK  103  A    between atoms: _264  and  _265
REMARK  104  A    between atoms: _264  and  _267
REMARK  105  A    between atoms: _267  and  _268
REMARK  106  A    between atoms: _270  and  _272
REMARK  107  A    between atoms: _272  and  _273
REMARK  108  A    between atoms: _272  and  _275
REMARK  109  A    between atoms: _275  and  _276
REMARK  110  A    between atoms: _278  and  _280
REMARK  111  A    between atoms: _280  and  _281
REMARK  112  A    between atoms: _283  and  _285
REMARK  113  A    between atoms: _285  and  _286
REMARK  114  A    between atoms: _285  and  _288
REMARK  115  A    between atoms: _288  and  _289
REMARK  116  A    between atoms: _292  and  _294
REMARK  117  A    between atoms: _294  and  _295
REMARK  118  A    between atoms: _298  and  _300
REMARK  119  A    between atoms: _300  and  _301
REMARK  120  A    between atoms: _300  and  _303
REMARK  121  A    between atoms: _303  and  _304
REMARK  122  A    between atoms: _309  and  _310
REMARK  123  A    between atoms: _312  and  _314
REMARK  124  A    between atoms: _314  and  _315
REMARK  125  A    between atoms: _314  and  _317
REMARK  126  A    between atoms: _317  and  _318
REMARK  127  A    between atoms: _321  and  _323
REMARK  128  A    between atoms: _323  and  _324
REMARK  129  A    between atoms: _323  and  _326
REMARK  130  A    between atoms: _326  and  _327
REMARK  131  A    between atoms: _330  and  _332
REMARK  132  A    between atoms: _332  and  _333
REMARK  133  A    between atoms: _332  and  _335
REMARK  134  A    between atoms: _335  and  _336
REMARK  135  A    between atoms: _336  and  _337
REMARK  136  A    between atoms: _337  and  _338
REMARK  137  A    between atoms: _338  and  _339
REMARK  138  A    between atoms: _343  and  _345
REMARK  139  A    between atoms: _345  and  _346
REMARK  140  A    between atoms: _345  and  _348
REMARK  141  A    between atoms: _348  and  _349
REMARK  142  A    between atoms: _351  and  _353
REMARK  143  A    between atoms: _353  and  _354
REMARK  144  A    between atoms: _356  and  _358
REMARK  145  A    between atoms: _358  and  _359
REMARK  146  A    between atoms: _358  and  _361
REMARK  147  A    between atoms: _361  and  _362
REMARK  148  A    between atoms: _365  and  _367
REMARK  149  A    between atoms: _367  and  _368
REMARK  150  A    between atoms: _367  and  _370
REMARK  151  A    between atoms: _370  and  _371
REMARK  152  A    between atoms: _374  and  _376
REMARK  153  A    between atoms: _376  and  _377
REMARK  154  A    between atoms: _380  and  _382
REMARK  155  A    between atoms: _382  and  _383
REMARK  156  A    between atoms: _382  and  _385
REMARK  157  A    between atoms: _385  and  _386
REMARK  158  A    between atoms: _386  and  _387
REMARK  159  A    between atoms: _387  and  _388
REMARK  160  A    between atoms: _397  and  _399
REMARK  161  A    between atoms: _399  and  _400
REMARK  162  A    between atoms: _402  and  _404
REMARK  163  A    between atoms: _404  and  _405
REMARK  164  A    between atoms: _404  and  _407
REMARK  165  A    between atoms: _407  and  _408
REMARK  166  A    between atoms: _414  and  _416
REMARK  167  A    between atoms: _416  and  _417
REMARK  168  A    between atoms: _416  and  _419
REMARK  169  A    between atoms: _419  and  _420
REMARK  170  A    between atoms: _423  and  _425
REMARK  171  A    between atoms: _425  and  _426
REMARK  172  A    between atoms: _425  and  _428
REMARK  173  A    between atoms: _428  and  _429
REMARK  174  A    between atoms: _434  and  _436
REMARK  175  A    between atoms: _436  and  _437
REMARK  176  A    between atoms: _436  and  _439
REMARK  177  A    between atoms: _439  and  _440
REMARK  178  A    between atoms: _443  and  _445
REMARK  179  A    between atoms: _445  and  _446
REMARK  180  A    between atoms: _445  and  _448
REMARK  181  A    between atoms: _448  and  _449
REMARK  182  A    between atoms: _454  and  _455
REMARK  183  A    between atoms: _457  and  _459
REMARK  184  A    between atoms: _459  and  _460
REMARK  185  A    between atoms: _459  and  _462
REMARK  186  A    between atoms: _462  and  _463
REMARK  187  A    between atoms: _466  and  _468
REMARK  188  A    between atoms: _468  and  _469
REMARK  189  A    between atoms: _468  and  _471
REMARK  190  A    between atoms: _471  and  _472
REMARK  191  A    between atoms: _472  and  _473
REMARK  192  A    between atoms: _476  and  _478
REMARK  193  A    between atoms: _478  and  _479
REMARK  194  A    between atoms: _478  and  _481
REMARK  195  A    between atoms: _481  and  _482
REMARK  196  A    between atoms: _485  and  _487
REMARK  197  A    between atoms: _487  and  _488
REMARK  198  A    between atoms: _490  and  _492
REMARK  199  A    between atoms: _492  and  _493
REMARK  200  A    between atoms: _495  and  _497
REMARK  201  A    between atoms: _497  and  _498
REMARK  202  A    between atoms: _497  and  _500
REMARK  203  A    between atoms: _500  and  _501
REMARK  204  A    between atoms: _501  and  _502
REMARK  205  A    between atoms: _507  and  _509
REMARK  206  A    between atoms: _509  and  _510
REMARK  207  A    between atoms: _513  and  _515
REMARK  208  A    between atoms: _515  and  _516
REMARK  209  A    between atoms: _515  and  _518
REMARK  210  A    between atoms: _518  and  _519
REMARK  211  A    between atoms: _522  and  _524
REMARK  212  A    between atoms: _524  and  _525
REMARK  213  A    between atoms: _524  and  _527
REMARK  214  A    between atoms: _527  and  _528
REMARK  215  A    between atoms: _528  and  _529
REMARK  216  A    between atoms: _534  and  _536
REMARK  217  A    between atoms: _536  and  _537
REMARK  218  A    between atoms: _536  and  _539
REMARK  219  A    between atoms: _539  and  _540
REMARK  220  A    between atoms: _543  and  _545
REMARK  221  A    between atoms: _545  and  _546
REMARK  222  A    between atoms: _545  and  _548
REMARK  223  A    between atoms: _548  and  _549
REMARK  224  A    between atoms: _549  and  _550
REMARK  225  A    between atoms: _550  and  _551
REMARK                            x       y       z     vdW  Elec       q    Type
REMARK                         _______ _______ _______ _____ _____    ______ ____
ROOT
ATOM      1  O   HOH     1      16.678  30.332  52.394  0.00  0.00    +0.000 OA
ENDROOT
TORSDOF 0
REMARK  Name = ../refined-set-2016/4r73/4r73_pocket.pdb
REMARK  225 active torsions:
REMARK  status: ('A' for Active; 'I' for Inactive)
REMARK    1  A    between atoms: _1  and  _3
REMARK    2  A    between atoms: _3  and  _4
REMARK    3  A    between atoms: _3  and  _6
REMARK    4  A    between atoms: _8  and  _10
REMARK    5  A    between atoms: _10  and  _11
REMARK    6  A    between atoms: _10  and  _13
REMARK    7  A    between atoms: _13  and  _14
REMARK    8  A    between atoms: _16  and  _18
REMARK    9  A    between atoms: _18  and  _19
REMARK   10  A    between atoms: _22  and  _24
REMARK   11  A    between atoms: _24  and  _25
REMARK   12  A    between atoms: _24  and  _27
REMARK   13  A    between atoms: _27  and  _28
REMARK   14  A    between atoms: _31  and  _33
REMARK   15  A    between atoms: _33  and  _34
REMARK   16  A    between atoms: _33  and  _36
REMARK   17  A    between atoms: _36  and  _37
REMARK   18  A    between atoms: _42  and  _44
REMARK   19  A    between atoms: _44  and  _45
REMARK   20  A    between atoms: _44  and  _47
REMARK   21  A    between atoms: _47  and  _48
REMARK   22  A    between atoms: _48  and  _49
REMARK   23  A    between atoms: _51  and  _53
REMARK   24  A    between atoms: _53  and  _54
REMARK   25  A    between atoms: _53  and  _56
REMARK   26  A    between atoms: _56  and  _57
REMARK   27  A    between atoms: _57  and  _58
REMARK   28  A    between atoms: _58  and  _59
REMARK   29  A    between atoms: _68  and  _70
REMARK   30  A    between atoms: _70  and  _71
REMARK   31  A    between atoms: _70  and  _73
REMARK   32  A    between atoms: _73  and  _74
REMARK   33  A    between atoms: _79  and  _81
REMARK   34  A    between atoms: _81  and  _82
REMARK   35  A    between atoms: _84  and  _86
REMARK   36  A    between atoms: _86  and  _87
REMARK   37  A    between atoms: _86  and  _89
REMARK   38  A    between atoms: _89  and  _90
REMARK   39  A    between atoms: _92  and  _94
REMARK   40  A    between atoms: _94  and  _95
REMARK   41  A    between atoms: _97  and  _99
REMARK   42  A    between atoms: _99  and  _100
REMARK   43  A    between atoms: _99  and  _102
REMARK   44  A    between atoms: _102  and  _103
REMARK   45  A    between atoms: _105  and  _107
REMARK   46  A    between atoms: _107  and  _108
REMARK   47  A    between atoms: _107  and  _110
REMARK   48  A    between atoms: _110  and  _111
REMARK   49  A    between atoms: _114  and  _116
REMARK   50  A    between atoms: _116  and  _117
REMARK   51  A    between atoms: _116  and  _119
REMARK   52  A    between atoms: _119  and  _120
REMARK   53  A    between atoms: _126  and  _128
REMARK   54  A    between atoms: _128  and  _129
REMARK   55  A    between atoms: _128  and  _131
REMARK   56  A    between atoms: _131  and  _132
REMARK   57  A    between atoms: _142  and  _144
REMARK   58  A    between atoms: _144  and  _145
REMARK   59  A    between atoms: _144  and  _147
REMARK   60  A    between atoms: _147  and  _148
REMARK   61  A    between atoms: _153  and  _154
REMARK   62  A    between atoms: _156  and  _158
REMARK   63  A    between atoms: _158  and  _159
REMARK   64  A    between atoms: _161  and  _163
REMARK   65  A    between atoms: _163  and  _164
REMARK   66  A    between atoms: _166  and  _168
REMARK   67  A    between atoms: _168  and  _169
REMARK   68  A    between atoms: _168  and  _171
REMARK   69  A    between atoms: _171  and  _172
REMARK   70  A    between atoms: _175  and  _177
REMARK   71  A    between atoms: _177  and  _178
REMARK   72  A    between atoms: _177  and  _180
REMARK   73  A    between atoms: _180  and  _181
REMARK   74  A    between atoms: _185  and  _186
REMARK   75  A    between atoms: _191  and  _193
REMARK   76  A    between atoms: _193  and  _194
REMARK   77  A    between atoms: _193  and  _196
REMARK   78  A    between atoms: _196  and  _197
REMARK   79  A    between atoms: _197  and  _198
REMARK   80  A    between atoms: _203  and  _205
REMARK   81  A    between atoms: _205  and  _206
REMARK   82  A    between atoms: _205  and  _208
REMARK   83  A    between atoms: _208  and  _209
REMARK   84  A    between atoms: _214  and  _215
REMARK   85  A    between atoms: _217  and  _219
REMARK   86  A    between atoms: _219  and  _220
REMARK   87  A    between atoms: _219  and  _222
REMARK   88  A    between atoms: _222  and  _223
REMARK   89  A    between atoms: _226  and  _228
REMARK   90  A    between atoms: _228  and  _229
REMARK   91  A    between atoms: _231  and  _233
REMARK   92  A    between atoms: _233  and  _234
REMARK   93  A    between atoms: _233  and  _236
REMARK   94  A    between atoms: _236  and  _237
REMARK   95  A    between atoms: _240  and  _242
REMARK   96  A    between atoms: _242  and  _243
REMARK   97  A    between atoms: _246  and  _248
REMARK   98  A    between atoms: _248  and  _249
REMARK   99  A    between atoms: _248  and  _251
REMARK  100  A    between atoms: _251  and  _252
REMARK  101  A    between atoms: _256  and  _257
REMARK  102  A    between atoms: _262  and  _264
REMARK  103  A    between atoms: _264  and  _265
REMARK  104  A    between atoms: _264  and  _267
REMARK  105  A    between atoms: _267  and  _268
REMARK  106  A    between atoms: _270  and  _272
REMARK  107  A    between atoms: _272  and  _273
REMARK  108  A    between atoms: _272  and  _275
REMARK  109  A    between atoms: _275  and  _276
REMARK  110  A    between atoms: _278  and  _280
REMARK  111  A    between atoms: _280  and  _281
REMARK  112  A    between atoms: _283  and  _285
REMARK  113  A    between atoms: _285  and  _286
REMARK  114  A    between atoms: _285  and  _288
REMARK  115  A    between atoms: _288  and  _289
REMARK  116  A    between atoms: _292  and  _294
REMARK  117  A    between atoms: _294  and  _295
REMARK  118  A    between atoms: _298  and  _300
REMARK  119  A    between atoms: _300  and  _301
REMARK  120  A    between atoms: _300  and  _303
REMARK  121  A    between atoms: _303  and  _304
REMARK  122  A    between atoms: _309  and  _310
REMARK  123  A    between atoms: _312  and  _314
REMARK  124  A    between atoms: _314  and  _315
REMARK  125  A    between atoms: _314  and  _317
REMARK  126  A    between atoms: _317  and  _318
REMARK  127  A    between atoms: _321  and  _323
REMARK  128  A    between atoms: _323  and  _324
REMARK  129  A    between atoms: _323  and  _326
REMARK  130  A    between atoms: _326  and  _327
REMARK  131  A    between atoms: _330  and  _332
REMARK  132  A    between atoms: _332  and  _333
REMARK  133  A    between atoms: _332  and  _335
REMARK  134  A    between atoms: _335  and  _336
REMARK  135  A    between atoms: _336  and  _337
REMARK  136  A    between atoms: _337  and  _338
REMARK  137  A    between atoms: _338  and  _339
REMARK  138  A    between atoms: _343  and  _345
REMARK  139  A    between atoms: _345  and  _346
REMARK  140  A    between atoms: _345  and  _348
REMARK  141  A    between atoms: _348  and  _349
REMARK  142  A    between atoms: _351  and  _353
REMARK  143  A    between atoms: _353  and  _354
REMARK  144  A    between atoms: _356  and  _358
REMARK  145  A    between atoms: _358  and  _359
REMARK  146  A    between atoms: _358  and  _361
REMARK  147  A    between atoms: _361  and  _362
REMARK  148  A    between atoms: _365  and  _367
REMARK  149  A    between atoms: _367  and  _368
REMARK  150  A    between atoms: _367  and  _370
REMARK  151  A    between atoms: _370  and  _371
REMARK  152  A    between atoms: _374  and  _376
REMARK  153  A    between atoms: _376  and  _377
REMARK  154  A    between atoms: _380  and  _382
REMARK  155  A    between atoms: _382  and  _383
REMARK  156  A    between atoms: _382  and  _385
REMARK  157  A    between atoms: _385  and  _386
REMARK  158  A    between atoms: _386  and  _387
REMARK  159  A    between atoms: _387  and  _388
REMARK  160  A    between atoms: _397  and  _399
REMARK  161  A    between atoms: _399  and  _400
REMARK  162  A    between atoms: _402  and  _404
REMARK  163  A    between atoms: _404  and  _405
REMARK  164  A    between atoms: _404  and  _407
REMARK  165  A    between atoms: _407  and  _408
REMARK  166  A    between atoms: _414  and  _416
REMARK  167  A    between atoms: _416  and  _417
REMARK  168  A    between atoms: _416  and  _419
REMARK  169  A    between atoms: _419  and  _420
REMARK  170  A    between atoms: _423  and  _425
REMARK  171  A    between atoms: _425  and  _426
REMARK  172  A    between atoms: _425  and  _428
REMARK  173  A    between atoms: _428  and  _429
REMARK  174  A    between atoms: _434  and  _436
REMARK  175  A    between atoms: _436  and  _437
REMARK  176  A    between atoms: _436  and  _439
REMARK  177  A    between atoms: _439  and  _440
REMARK  178  A    between atoms: _443  and  _445
REMARK  179  A    between atoms: _445  and  _446
REMARK  180  A    between atoms: _445  and  _448
REMARK  181  A    between atoms: _448  and  _449
REMARK  182  A    between atoms: _454  and  _455
REMARK  183  A    between atoms: _457  and  _459
REMARK  184  A    between atoms: _459  and  _460
REMARK  185  A    between atoms: _459  and  _462
REMARK  186  A    between atoms: _462  and  _463
REMARK  187  A    between atoms: _466  and  _468
REMARK  188  A    between atoms: _468  and  _469
REMARK  189  A    between atoms: _468  and  _471
REMARK  190  A    between atoms: _471  and  _472
REMARK  191  A    between atoms: _472  and  _473
REMARK  192  A    between atoms: _476  and  _478
REMARK  193  A    between atoms: _478  and  _479
REMARK  194  A    between atoms: _478  and  _481
REMARK  195  A    between atoms: _481  and  _482
REMARK  196  A    between atoms: _485  and  _487
REMARK  197  A    between atoms: _487  and  _488
REMARK  198  A    between atoms: _490  and  _492
REMARK  199  A    between atoms: _492  and  _493
REMARK  200  A    between atoms: _495  and  _497
REMARK  201  A    between atoms: _497  and  _498
REMARK  202  A    between atoms: _497  and  _500
REMARK  203  A    between atoms: _500  and  _501
REMARK  204  A    between atoms: _501  and  _502
REMARK  205  A    between atoms: _507  and  _509
REMARK  206  A    between atoms: _509  and  _510
REMARK  207  A    between atoms: _513  and  _515
REMARK  208  A    between atoms: _515  and  _516
REMARK  209  A    between atoms: _515  and  _518
REMARK  210  A    between atoms: _518  and  _519
REMARK  211  A    between atoms: _522  and  _524
REMARK  212  A    between atoms: _524  and  _525
REMARK  213  A    between atoms: _524  and  _527
REMARK  214  A    between atoms: _527  and  _528
REMARK  215  A    between atoms: _528  and  _529
REMARK  216  A    between atoms: _534  and  _536
REMARK  217  A    between atoms: _536  and  _537
REMARK  218  A    between atoms: _536  and  _539
REMARK  219  A    between atoms: _539  and  _540
REMARK  220  A    between atoms: _543  and  _545
REMARK  221  A    between atoms: _545  and  _546
REMARK  222  A    between atoms: _545  and  _548
REMARK  223  A    between atoms: _548  and  _549
REMARK  224  A    between atoms: _549  and  _550
REMARK  225  A    between atoms: _550  and  _551
REMARK                            x       y       z     vdW  Elec       q    Type
REMARK                         _______ _______ _______ _____ _____    ______ ____
ROOT
ATOM      1  O   HOH     1      12.590  33.754  55.911  0.00  0.00    +0.000 OA
ENDROOT
TORSDOF 0
REMARK  Name = ../refined-set-2016/4r73/4r73_pocket.pdb
REMARK  225 active torsions:
REMARK  status: ('A' for Active; 'I' for Inactive)
REMARK    1  A    between atoms: _1  and  _3
REMARK    2  A    between atoms: _3  and  _4
REMARK    3  A    between atoms: _3  and  _6
REMARK    4  A    between atoms: _8  and  _10
REMARK    5  A    between atoms: _10  and  _11
REMARK    6  A    between atoms: _10  and  _13
REMARK    7  A    between atoms: _13  and  _14
REMARK    8  A    between atoms: _16  and  _18
REMARK    9  A    between atoms: _18  and  _19
REMARK   10  A    between atoms: _22  and  _24
REMARK   11  A    between atoms: _24  and  _25
REMARK   12  A    between atoms: _24  and  _27
REMARK   13  A    between atoms: _27  and  _28
REMARK   14  A    between atoms: _31  and  _33
REMARK   15  A    between atoms: _33  and  _34
REMARK   16  A    between atoms: _33  and  _36
REMARK   17  A    between atoms: _36  and  _37
REMARK   18  A    between atoms: _42  and  _44
REMARK   19  A    between atoms: _44  and  _45
REMARK   20  A    between atoms: _44  and  _47
REMARK   21  A    between atoms: _47  and  _48
REMARK   22  A    between atoms: _48  and  _49
REMARK   23  A    between atoms: _51  and  _53
REMARK   24  A    between atoms: _53  and  _54
REMARK   25  A    between atoms: _53  and  _56
REMARK   26  A    between atoms: _56  and  _57
REMARK   27  A    between atoms: _57  and  _58
REMARK   28  A    between atoms: _58  and  _59
REMARK   29  A    between atoms: _68  and  _70
REMARK   30  A    between atoms: _70  and  _71
REMARK   31  A    between atoms: _70  and  _73
REMARK   32  A    between atoms: _73  and  _74
REMARK   33  A    between atoms: _79  and  _81
REMARK   34  A    between atoms: _81  and  _82
REMARK   35  A    between atoms: _84  and  _86
REMARK   36  A    between atoms: _86  and  _87
REMARK   37  A    between atoms: _86  and  _89
REMARK   38  A    between atoms: _89  and  _90
REMARK   39  A    between atoms: _92  and  _94
REMARK   40  A    between atoms: _94  and  _95
REMARK   41  A    between atoms: _97  and  _99
REMARK   42  A    between atoms: _99  and  _100
REMARK   43  A    between atoms: _99  and  _102
REMARK   44  A    between atoms: _102  and  _103
REMARK   45  A    between atoms: _105  and  _107
REMARK   46  A    between atoms: _107  and  _108
REMARK   47  A    between atoms: _107  and  _110
REMARK   48  A    between atoms: _110  and  _111
REMARK   49  A    between atoms: _114  and  _116
REMARK   50  A    between atoms: _116  and  _117
REMARK   51  A    between atoms: _116  and  _119
REMARK   52  A    between atoms: _119  and  _120
REMARK   53  A    between atoms: _126  and  _128
REMARK   54  A    between atoms: _128  and  _129
REMARK   55  A    between atoms: _128  and  _131
REMARK   56  A    between atoms: _131  and  _132
REMARK   57  A    between atoms: _142  and  _144
REMARK   58  A    between atoms: _144  and  _145
REMARK   59  A    between atoms: _144  and  _147
REMARK   60  A    between atoms: _147  and  _148
REMARK   61  A    between atoms: _153  and  _154
REMARK   62  A    between atoms: _156  and  _158
REMARK   63  A    between atoms: _158  and  _159
REMARK   64  A    between atoms: _161  and  _163
REMARK   65  A    between atoms: _163  and  _164
REMARK   66  A    between atoms: _166  and  _168
REMARK   67  A    between atoms: _168  and  _169
REMARK   68  A    between atoms: _168  and  _171
REMARK   69  A    between atoms: _171  and  _172
REMARK   70  A    between atoms: _175  and  _177
REMARK   71  A    between atoms: _177  and  _178
REMARK   72  A    between atoms: _177  and  _180
REMARK   73  A    between atoms: _180  and  _181
REMARK   74  A    between atoms: _185  and  _186
REMARK   75  A    between atoms: _191  and  _193
REMARK   76  A    between atoms: _193  and  _194
REMARK   77  A    between atoms: _193  and  _196
REMARK   78  A    between atoms: _196  and  _197
REMARK   79  A    between atoms: _197  and  _198
REMARK   80  A    between atoms: _203  and  _205
REMARK   81  A    between atoms: _205  and  _206
REMARK   82  A    between atoms: _205  and  _208
REMARK   83  A    between atoms: _208  and  _209
REMARK   84  A    between atoms: _214  and  _215
REMARK   85  A    between atoms: _217  and  _219
REMARK   86  A    between atoms: _219  and  _220
REMARK   87  A    between atoms: _219  and  _222
REMARK   88  A    between atoms: _222  and  _223
REMARK   89  A    between atoms: _226  and  _228
REMARK   90  A    between atoms: _228  and  _229
REMARK   91  A    between atoms: _231  and  _233
REMARK   92  A    between atoms: _233  and  _234
REMARK   93  A    between atoms: _233  and  _236
REMARK   94  A    between atoms: _236  and  _237
REMARK   95  A    between atoms: _240  and  _242
REMARK   96  A    between atoms: _242  and  _243
REMARK   97  A    between atoms: _246  and  _248
REMARK   98  A    between atoms: _248  and  _249
REMARK   99  A    between atoms: _248  and  _251
REMARK  100  A    between atoms: _251  and  _252
REMARK  101  A    between atoms: _256  and  _257
REMARK  102  A    between atoms: _262  and  _264
REMARK  103  A    between atoms: _264  and  _265
REMARK  104  A    between atoms: _264  and  _267
REMARK  105  A    between atoms: _267  and  _268
REMARK  106  A    between atoms: _270  and  _272
REMARK  107  A    between atoms: _272  and  _273
REMARK  108  A    between atoms: _272  and  _275
REMARK  109  A    between atoms: _275  and  _276
REMARK  110  A    between atoms: _278  and  _280
REMARK  111  A    between atoms: _280  and  _281
REMARK  112  A    between atoms: _283  and  _285
REMARK  113  A    between atoms: _285  and  _286
REMARK  114  A    between atoms: _285  and  _288
REMARK  115  A    between atoms: _288  and  _289
REMARK  116  A    between atoms: _292  and  _294
REMARK  117  A    between atoms: _294  and  _295
REMARK  118  A    between atoms: _298  and  _300
REMARK  119  A    between atoms: _300  and  _301
REMARK  120  A    between atoms: _300  and  _303
REMARK  121  A    between atoms: _303  and  _304
REMARK  122  A    between atoms: _309  and  _310
REMARK  123  A    between atoms: _312  and  _314
REMARK  124  A    between atoms: _314  and  _315
REMARK  125  A    between atoms: _314  and  _317
REMARK  126  A    between atoms: _317  and  _318
REMARK  127  A    between atoms: _321  and  _323
REMARK  128  A    between atoms: _323  and  _324
REMARK  129  A    between atoms: _323  and  _326
REMARK  130  A    between atoms: _326  and  _327
REMARK  131  A    between atoms: _330  and  _332
REMARK  132  A    between atoms: _332  and  _333
REMARK  133  A    between atoms: _332  and  _335
REMARK  134  A    between atoms: _335  and  _336
REMARK  135  A    between atoms: _336  and  _337
REMARK  136  A    between atoms: _337  and  _338
REMARK  137  A    between atoms: _338  and  _339
REMARK  138  A    between atoms: _343  and  _345
REMARK  139  A    between atoms: _345  and  _346
REMARK  140  A    between atoms: _345  and  _348
REMARK  141  A    between atoms: _348  and  _349
REMARK  142  A    between atoms: _351  and  _353
REMARK  143  A    between atoms: _353  and  _354
REMARK  144  A    between atoms: _356  and  _358
REMARK  145  A    between atoms: _358  and  _359
REMARK  146  A    between atoms: _358  and  _361
REMARK  147  A    between atoms: _361  and  _362
REMARK  148  A    between atoms: _365  and  _367
REMARK  149  A    between atoms: _367  and  _368
REMARK  150  A    between atoms: _367  and  _370
REMARK  151  A    between atoms: _370  and  _371
REMARK  152  A    between atoms: _374  and  _376
REMARK  153  A    between atoms: _376  and  _377
REMARK  154  A    between atoms: _380  and  _382
REMARK  155  A    between atoms: _382  and  _383
REMARK  156  A    between atoms: _382  and  _385
REMARK  157  A    between atoms: _385  and  _386
REMARK  158  A    between atoms: _386  and  _387
REMARK  159  A    between atoms: _387  and  _388
REMARK  160  A    between atoms: _397  and  _399
REMARK  161  A    between atoms: _399  and  _400
REMARK  162  A    between atoms: _402  and  _404
REMARK  163  A    between atoms: _404  and  _405
REMARK  164  A    between atoms: _404  and  _407
REMARK  165  A    between atoms: _407  and  _408
REMARK  166  A    between atoms: _414  and  _416
REMARK  167  A    between atoms: _416  and  _417
REMARK  168  A    between atoms: _416  and  _419
REMARK  169  A    between atoms: _419  and  _420
REMARK  170  A    between atoms: _423  and  _425
REMARK  171  A    between atoms: _425  and  _426
REMARK  172  A    between atoms: _425  and  _428
REMARK  173  A    between atoms: _428  and  _429
REMARK  174  A    between atoms: _434  and  _436
REMARK  175  A    between atoms: _436  and  _437
REMARK  176  A    between atoms: _436  and  _439
REMARK  177  A    between atoms: _439  and  _440
REMARK  178  A    between atoms: _443  and  _445
REMARK  179  A    between atoms: _445  and  _446
REMARK  180  A    between atoms: _445  and  _448
REMARK  181  A    between atoms: _448  and  _449
REMARK  182  A    between atoms: _454  and  _455
REMARK  183  A    between atoms: _457  and  _459
REMARK  184  A    between atoms: _459  and  _460
REMARK  185  A    between atoms: _459  and  _462
REMARK  186  A    between atoms: _462  and  _463
REMARK  187  A    between atoms: _466  and  _468
REMARK  188  A    between atoms: _468  and  _469
REMARK  189  A    between atoms: _468  and  _471
REMARK  190  A    between atoms: _471  and  _472
REMARK  191  A    between atoms: _472  and  _473
REMARK  192  A    between atoms: _476  and  _478
REMARK  193  A    between atoms: _478  and  _479
REMARK  194  A    between atoms: _478  and  _481
REMARK  195  A    between atoms: _481  and  _482
REMARK  196  A    between atoms: _485  and  _487
REMARK  197  A    between atoms: _487  and  _488
REMARK  198  A    between atoms: _490  and  _492
REMARK  199  A    between atoms: _492  and  _493
REMARK  200  A    between atoms: _495  and  _497
REMARK  201  A    between atoms: _497  and  _498
REMARK  202  A    between atoms: _497  and  _500
REMARK  203  A    between atoms: _500  and  _501
REMARK  204  A    between atoms: _501  and  _502
REMARK  205  A    between atoms: _507  and  _509
REMARK  206  A    between atoms: _509  and  _510
REMARK  207  A    between atoms: _513  and  _515
REMARK  208  A    between atoms: _515  and  _516
REMARK  209  A    between atoms: _515  and  _518
REMARK  210  A    between atoms: _518  and  _519
REMARK  211  A    between atoms: _522  and  _524
REMARK  212  A    between atoms: _524  and  _525
REMARK  213  A    between atoms: _524  and  _527
REMARK  214  A    between atoms: _527  and  _528
REMARK  215  A    between atoms: _528  and  _529
REMARK  216  A    between atoms: _534  and  _536
REMARK  217  A    between atoms: _536  and  _537
REMARK  218  A    between atoms: _536  and  _539
REMARK  219  A    between atoms: _539  and  _540
REMARK  220  A    between atoms: _543  and  _545
REMARK  221  A    between atoms: _545  and  _546
REMARK  222  A    between atoms: _545  and  _548
REMARK  223  A    between atoms: _548  and  _549
REMARK  224  A    between atoms: _549  and  _550
REMARK  225  A    between atoms: _550  and  _551
REMARK                            x       y       z     vdW  Elec       q    Type
REMARK                         _______ _______ _______ _____ _____    ______ ____
ROOT
ATOM      1  O   HOH     1       3.963  25.595  52.593  0.00  0.00    +0.000 OA
ENDROOT
TORSDOF 0
REMARK  Name = ../refined-set-2016/4r73/4r73_pocket.pdb
REMARK  225 active torsions:
REMARK  status: ('A' for Active; 'I' for Inactive)
REMARK    1  A    between atoms: _1  and  _3
REMARK    2  A    between atoms: _3  and  _4
REMARK    3  A    between atoms: _3  and  _6
REMARK    4  A    between atoms: _8  and  _10
REMARK    5  A    between atoms: _10  and  _11
REMARK    6  A    between atoms: _10  and  _13
REMARK    7  A    between atoms: _13  and  _14
REMARK    8  A    between atoms: _16  and  _18
REMARK    9  A    between atoms: _18  and  _19
REMARK   10  A    between atoms: _22  and  _24
REMARK   11  A    between atoms: _24  and  _25
REMARK   12  A    between atoms: _24  and  _27
REMARK   13  A    between atoms: _27  and  _28
REMARK   14  A    between atoms: _31  and  _33
REMARK   15  A    between atoms: _33  and  _34
REMARK   16  A    between atoms: _33  and  _36
REMARK   17  A    between atoms: _36  and  _37
REMARK   18  A    between atoms: _42  and  _44
REMARK   19  A    between atoms: _44  and  _45
REMARK   20  A    between atoms: _44  and  _47
REMARK   21  A    between atoms: _47  and  _48
REMARK   22  A    between atoms: _48  and  _49
REMARK   23  A    between atoms: _51  and  _53
REMARK   24  A    between atoms: _53  and  _54
REMARK   25  A    between atoms: _53  and  _56
REMARK   26  A    between atoms: _56  and  _57
REMARK   27  A    between atoms: _57  and  _58
REMARK   28  A    between atoms: _58  and  _59
REMARK   29  A    between atoms: _68  and  _70
REMARK   30  A    between atoms: _70  and  _71
REMARK   31  A    between atoms: _70  and  _73
REMARK   32  A    between atoms: _73  and  _74
REMARK   33  A    between atoms: _79  and  _81
REMARK   34  A    between atoms: _81  and  _82
REMARK   35  A    between atoms: _84  and  _86
REMARK   36  A    between atoms: _86  and  _87
REMARK   37  A    between atoms: _86  and  _89
REMARK   38  A    between atoms: _89  and  _90
REMARK   39  A    between atoms: _92  and  _94
REMARK   40  A    between atoms: _94  and  _95
REMARK   41  A    between atoms: _97  and  _99
REMARK   42  A    between atoms: _99  and  _100
REMARK   43  A    between atoms: _99  and  _102
REMARK   44  A    between atoms: _102  and  _103
REMARK   45  A    between atoms: _105  and  _107
REMARK   46  A    between atoms: _107  and  _108
REMARK   47  A    between atoms: _107  and  _110
REMARK   48  A    between atoms: _110  and  _111
REMARK   49  A    between atoms: _114  and  _116
REMARK   50  A    between atoms: _116  and  _117
REMARK   51  A    between atoms: _116  and  _119
REMARK   52  A    between atoms: _119  and  _120
REMARK   53  A    between atoms: _126  and  _128
REMARK   54  A    between atoms: _128  and  _129
REMARK   55  A    between atoms: _128  and  _131
REMARK   56  A    between atoms: _131  and  _132
REMARK   57  A    between atoms: _142  and  _144
REMARK   58  A    between atoms: _144  and  _145
REMARK   59  A    between atoms: _144  and  _147
REMARK   60  A    between atoms: _147  and  _148
REMARK   61  A    between atoms: _153  and  _154
REMARK   62  A    between atoms: _156  and  _158
REMARK   63  A    between atoms: _158  and  _159
REMARK   64  A    between atoms: _161  and  _163
REMARK   65  A    between atoms: _163  and  _164
REMARK   66  A    between atoms: _166  and  _168
REMARK   67  A    between atoms: _168  and  _169
REMARK   68  A    between atoms: _168  and  _171
REMARK   69  A    between atoms: _171  and  _172
REMARK   70  A    between atoms: _175  and  _177
REMARK   71  A    between atoms: _177  and  _178
REMARK   72  A    between atoms: _177  and  _180
REMARK   73  A    between atoms: _180  and  _181
REMARK   74  A    between atoms: _185  and  _186
REMARK   75  A    between atoms: _191  and  _193
REMARK   76  A    between atoms: _193  and  _194
REMARK   77  A    between atoms: _193  and  _196
REMARK   78  A    between atoms: _196  and  _197
REMARK   79  A    between atoms: _197  and  _198
REMARK   80  A    between atoms: _203  and  _205
REMARK   81  A    between atoms: _205  and  _206
REMARK   82  A    between atoms: _205  and  _208
REMARK   83  A    between atoms: _208  and  _209
REMARK   84  A    between atoms: _214  and  _215
REMARK   85  A    between atoms: _217  and  _219
REMARK   86  A    between atoms: _219  and  _220
REMARK   87  A    between atoms: _219  and  _222
REMARK   88  A    between atoms: _222  and  _223
REMARK   89  A    between atoms: _226  and  _228
REMARK   90  A    between atoms: _228  and  _229
REMARK   91  A    between atoms: _231  and  _233
REMARK   92  A    between atoms: _233  and  _234
REMARK   93  A    between atoms: _233  and  _236
REMARK   94  A    between atoms: _236  and  _237
REMARK   95  A    between atoms: _240  and  _242
REMARK   96  A    between atoms: _242  and  _243
REMARK   97  A    between atoms: _246  and  _248
REMARK   98  A    between atoms: _248  and  _249
REMARK   99  A    between atoms: _248  and  _251
REMARK  100  A    between atoms: _251  and  _252
REMARK  101  A    between atoms: _256  and  _257
REMARK  102  A    between atoms: _262  and  _264
REMARK  103  A    between atoms: _264  and  _265
REMARK  104  A    between atoms: _264  and  _267
REMARK  105  A    between atoms: _267  and  _268
REMARK  106  A    between atoms: _270  and  _272
REMARK  107  A    between atoms: _272  and  _273
REMARK  108  A    between atoms: _272  and  _275
REMARK  109  A    between atoms: _275  and  _276
REMARK  110  A    between atoms: _278  and  _280
REMARK  111  A    between atoms: _280  and  _281
REMARK  112  A    between atoms: _283  and  _285
REMARK  113  A    between atoms: _285  and  _286
REMARK  114  A    between atoms: _285  and  _288
REMARK  115  A    between atoms: _288  and  _289
REMARK  116  A    between atoms: _292  and  _294
REMARK  117  A    between atoms: _294  and  _295
REMARK  118  A    between atoms: _298  and  _300
REMARK  119  A    between atoms: _300  and  _301
REMARK  120  A    between atoms: _300  and  _303
REMARK  121  A    between atoms: _303  and  _304
REMARK  122  A    between atoms: _309  and  _310
REMARK  123  A    between atoms: _312  and  _314
REMARK  124  A    between atoms: _314  and  _315
REMARK  125  A    between atoms: _314  and  _317
REMARK  126  A    between atoms: _317  and  _318
REMARK  127  A    between atoms: _321  and  _323
REMARK  128  A    between atoms: _323  and  _324
REMARK  129  A    between atoms: _323  and  _326
REMARK  130  A    between atoms: _326  and  _327
REMARK  131  A    between atoms: _330  and  _332
REMARK  132  A    between atoms: _332  and  _333
REMARK  133  A    between atoms: _332  and  _335
REMARK  134  A    between atoms: _335  and  _336
REMARK  135  A    between atoms: _336  and  _337
REMARK  136  A    between atoms: _337  and  _338
REMARK  137  A    between atoms: _338  and  _339
REMARK  138  A    between atoms: _343  and  _345
REMARK  139  A    between atoms: _345  and  _346
REMARK  140  A    between atoms: _345  and  _348
REMARK  141  A    between atoms: _348  and  _349
REMARK  142  A    between atoms: _351  and  _353
REMARK  143  A    between atoms: _353  and  _354
REMARK  144  A    between atoms: _356  and  _358
REMARK  145  A    between atoms: _358  and  _359
REMARK  146  A    between atoms: _358  and  _361
REMARK  147  A    between atoms: _361  and  _362
REMARK  148  A    between atoms: _365  and  _367
REMARK  149  A    between atoms: _367  and  _368
REMARK  150  A    between atoms: _367  and  _370
REMARK  151  A    between atoms: _370  and  _371
REMARK  152  A    between atoms: _374  and  _376
REMARK  153  A    between atoms: _376  and  _377
REMARK  154  A    between atoms: _380  and  _382
REMARK  155  A    between atoms: _382  and  _383
REMARK  156  A    between atoms: _382  and  _385
REMARK  157  A    between atoms: _385  and  _386
REMARK  158  A    between atoms: _386  and  _387
REMARK  159  A    between atoms: _387  and  _388
REMARK  160  A    between atoms: _397  and  _399
REMARK  161  A    between atoms: _399  and  _400
REMARK  162  A    between atoms: _402  and  _404
REMARK  163  A    between atoms: _404  and  _405
REMARK  164  A    between atoms: _404  and  _407
REMARK  165  A    between atoms: _407  and  _408
REMARK  166  A    between atoms: _414  and  _416
REMARK  167  A    between atoms: _416  and  _417
REMARK  168  A    between atoms: _416  and  _419
REMARK  169  A    between atoms: _419  and  _420
REMARK  170  A    between atoms: _423  and  _425
REMARK  171  A    between atoms: _425  and  _426
REMARK  172  A    between atoms: _425  and  _428
REMARK  173  A    between atoms: _428  and  _429
REMARK  174  A    between atoms: _434  and  _436
REMARK  175  A    between atoms: _436  and  _437
REMARK  176  A    between atoms: _436  and  _439
REMARK  177  A    between atoms: _439  and  _440
REMARK  178  A    between atoms: _443  and  _445
REMARK  179  A    between atoms: _445  and  _446
REMARK  180  A    between atoms: _445  and  _448
REMARK  181  A    between atoms: _448  and  _449
REMARK  182  A    between atoms: _454  and  _455
REMARK  183  A    between atoms: _457  and  _459
REMARK  184  A    between atoms: _459  and  _460
REMARK  185  A    between atoms: _459  and  _462
REMARK  186  A    between atoms: _462  and  _463
REMARK  187  A    between atoms: _466  and  _468
REMARK  188  A    between atoms: _468  and  _469
REMARK  189  A    between atoms: _468  and  _471
REMARK  190  A    between atoms: _471  and  _472
REMARK  191  A    between atoms: _472  and  _473
REMARK  192  A    between atoms: _476  and  _478
REMARK  193  A    between atoms: _478  and  _479
REMARK  194  A    between atoms: _478  and  _481
REMARK  195  A    between atoms: _481  and  _482
REMARK  196  A    between atoms: _485  and  _487
REMARK  197  A    between atoms: _487  and  _488
REMARK  198  A    between atoms: _490  and  _492
REMARK  199  A    between atoms: _492  and  _493
REMARK  200  A    between atoms: _495  and  _497
REMARK  201  A    between atoms: _497  and  _498
REMARK  202  A    between atoms: _497  and  _500
REMARK  203  A    between atoms: _500  and  _501
REMARK  204  A    between atoms: _501  and  _502
REMARK  205  A    between atoms: _507  and  _509
REMARK  206  A    between atoms: _509  and  _510
REMARK  207  A    between atoms: _513  and  _515
REMARK  208  A    between atoms: _515  and  _516
REMARK  209  A    between atoms: _515  and  _518
REMARK  210  A    between atoms: _518  and  _519
REMARK  211  A    between atoms: _522  and  _524
REMARK  212  A    between atoms: _524  and  _525
REMARK  213  A    between atoms: _524  and  _527
REMARK  214  A    between atoms: _527  and  _528
REMARK  215  A    between atoms: _528  and  _529
REMARK  216  A    between atoms: _534  and  _536
REMARK  217  A    between atoms: _536  and  _537
REMARK  218  A    between atoms: _536  and  _539
REMARK  219  A    between atoms: _539  and  _540
REMARK  220  A    between atoms: _543  and  _545
REMARK  221  A    between atoms: _545  and  _546
REMARK  222  A    between atoms: _545  and  _548
REMARK  223  A    between atoms: _548  and  _549
REMARK  224  A    between atoms: _549  and  _550
REMARK  225  A    between atoms: _550  and  _551
REMARK                            x       y       z     vdW  Elec       q    Type
REMARK                         _______ _______ _______ _____ _____    ______ ____
ROOT
ATOM      1  O   HOH     1      10.787  30.429  55.246  0.00  0.00    +0.000 OA
ENDROOT
TORSDOF 0
REMARK  Name = ../refined-set-2016/4r73/4r73_pocket.pdb
REMARK  225 active torsions:
REMARK  status: ('A' for Active; 'I' for Inactive)
REMARK    1  A    between atoms: _1  and  _3
REMARK    2  A    between atoms: _3  and  _4
REMARK    3  A    between atoms: _3  and  _6
REMARK    4  A    between atoms: _8  and  _10
REMARK    5  A    between atoms: _10  and  _11
REMARK    6  A    between atoms: _10  and  _13
REMARK    7  A    between atoms: _13  and  _14
REMARK    8  A    between atoms: _16  and  _18
REMARK    9  A    between atoms: _18  and  _19
REMARK   10  A    between atoms: _22  and  _24
REMARK   11  A    between atoms: _24  and  _25
REMARK   12  A    between atoms: _24  and  _27
REMARK   13  A    between atoms: _27  and  _28
REMARK   14  A    between atoms: _31  and  _33
REMARK   15  A    between atoms: _33  and  _34
REMARK   16  A    between atoms: _33  and  _36
REMARK   17  A    between atoms: _36  and  _37
REMARK   18  A    between atoms: _42  and  _44
REMARK   19  A    between atoms: _44  and  _45
REMARK   20  A    between atoms: _44  and  _47
REMARK   21  A    between atoms: _47  and  _48
REMARK   22  A    between atoms: _48  and  _49
REMARK   23  A    between atoms: _51  and  _53
REMARK   24  A    between atoms: _53  and  _54
REMARK   25  A    between atoms: _53  and  _56
REMARK   26  A    between atoms: _56  and  _57
REMARK   27  A    between atoms: _57  and  _58
REMARK   28  A    between atoms: _58  and  _59
REMARK   29  A    between atoms: _68  and  _70
REMARK   30  A    between atoms: _70  and  _71
REMARK   31  A    between atoms: _70  and  _73
REMARK   32  A    between atoms: _73  and  _74
REMARK   33  A    between atoms: _79  and  _81
REMARK   34  A    between atoms: _81  and  _82
REMARK   35  A    between atoms: _84  and  _86
REMARK   36  A    between atoms: _86  and  _87
REMARK   37  A    between atoms: _86  and  _89
REMARK   38  A    between atoms: _89  and  _90
REMARK   39  A    between atoms: _92  and  _94
REMARK   40  A    between atoms: _94  and  _95
REMARK   41  A    between atoms: _97  and  _99
REMARK   42  A    between atoms: _99  and  _100
REMARK   43  A    between atoms: _99  and  _102
REMARK   44  A    between atoms: _102  and  _103
REMARK   45  A    between atoms: _105  and  _107
REMARK   46  A    between atoms: _107  and  _108
REMARK   47  A    between atoms: _107  and  _110
REMARK   48  A    between atoms: _110  and  _111
REMARK   49  A    between atoms: _114  and  _116
REMARK   50  A    between atoms: _116  and  _117
REMARK   51  A    between atoms: _116  and  _119
REMARK   52  A    between atoms: _119  and  _120
REMARK   53  A    between atoms: _126  and  _128
REMARK   54  A    between atoms: _128  and  _129
REMARK   55  A    between atoms: _128  and  _131
REMARK   56  A    between atoms: _131  and  _132
REMARK   57  A    between atoms: _142  and  _144
REMARK   58  A    between atoms: _144  and  _145
REMARK   59  A    between atoms: _144  and  _147
REMARK   60  A    between atoms: _147  and  _148
REMARK   61  A    between atoms: _153  and  _154
REMARK   62  A    between atoms: _156  and  _158
REMARK   63  A    between atoms: _158  and  _159
REMARK   64  A    between atoms: _161  and  _163
REMARK   65  A    between atoms: _163  and  _164
REMARK   66  A    between atoms: _166  and  _168
REMARK   67  A    between atoms: _168  and  _169
REMARK   68  A    between atoms: _168  and  _171
REMARK   69  A    between atoms: _171  and  _172
REMARK   70  A    between atoms: _175  and  _177
REMARK   71  A    between atoms: _177  and  _178
REMARK   72  A    between atoms: _177  and  _180
REMARK   73  A    between atoms: _180  and  _181
REMARK   74  A    between atoms: _185  and  _186
REMARK   75  A    between atoms: _191  and  _193
REMARK   76  A    between atoms: _193  and  _194
REMARK   77  A    between atoms: _193  and  _196
REMARK   78  A    between atoms: _196  and  _197
REMARK   79  A    between atoms: _197  and  _198
REMARK   80  A    between atoms: _203  and  _205
REMARK   81  A    between atoms: _205  and  _206
REMARK   82  A    between atoms: _205  and  _208
REMARK   83  A    between atoms: _208  and  _209
REMARK   84  A    between atoms: _214  and  _215
REMARK   85  A    between atoms: _217  and  _219
REMARK   86  A    between atoms: _219  and  _220
REMARK   87  A    between atoms: _219  and  _222
REMARK   88  A    between atoms: _222  and  _223
REMARK   89  A    between atoms: _226  and  _228
REMARK   90  A    between atoms: _228  and  _229
REMARK   91  A    between atoms: _231  and  _233
REMARK   92  A    between atoms: _233  and  _234
REMARK   93  A    between atoms: _233  and  _236
REMARK   94  A    between atoms: _236  and  _237
REMARK   95  A    between atoms: _240  and  _242
REMARK   96  A    between atoms: _242  and  _243
REMARK   97  A    between atoms: _246  and  _248
REMARK   98  A    between atoms: _248  and  _249
REMARK   99  A    between atoms: _248  and  _251
REMARK  100  A    between atoms: _251  and  _252
REMARK  101  A    between atoms: _256  and  _257
REMARK  102  A    between atoms: _262  and  _264
REMARK  103  A    between atoms: _264  and  _265
REMARK  104  A    between atoms: _264  and  _267
REMARK  105  A    between atoms: _267  and  _268
REMARK  106  A    between atoms: _270  and  _272
REMARK  107  A    between atoms: _272  and  _273
REMARK  108  A    between atoms: _272  and  _275
REMARK  109  A    between atoms: _275  and  _276
REMARK  110  A    between atoms: _278  and  _280
REMARK  111  A    between atoms: _280  and  _281
REMARK  112  A    between atoms: _283  and  _285
REMARK  113  A    between atoms: _285  and  _286
REMARK  114  A    between atoms: _285  and  _288
REMARK  115  A    between atoms: _288  and  _289
REMARK  116  A    between atoms: _292  and  _294
REMARK  117  A    between atoms: _294  and  _295
REMARK  118  A    between atoms: _298  and  _300
REMARK  119  A    between atoms: _300  and  _301
REMARK  120  A    between atoms: _300  and  _303
REMARK  121  A    between atoms: _303  and  _304
REMARK  122  A    between atoms: _309  and  _310
REMARK  123  A    between atoms: _312  and  _314
REMARK  124  A    between atoms: _314  and  _315
REMARK  125  A    between atoms: _314  and  _317
REMARK  126  A    between atoms: _317  and  _318
REMARK  127  A    between atoms: _321  and  _323
REMARK  128  A    between atoms: _323  and  _324
REMARK  129  A    between atoms: _323  and  _326
REMARK  130  A    between atoms: _326  and  _327
REMARK  131  A    between atoms: _330  and  _332
REMARK  132  A    between atoms: _332  and  _333
REMARK  133  A    between atoms: _332  and  _335
REMARK  134  A    between atoms: _335  and  _336
REMARK  135  A    between atoms: _336  and  _337
REMARK  136  A    between atoms: _337  and  _338
REMARK  137  A    between atoms: _338  and  _339
REMARK  138  A    between atoms: _343  and  _345
REMARK  139  A    between atoms: _345  and  _346
REMARK  140  A    between atoms: _345  and  _348
REMARK  141  A    between atoms: _348  and  _349
REMARK  142  A    between atoms: _351  and  _353
REMARK  143  A    between atoms: _353  and  _354
REMARK  144  A    between atoms: _356  and  _358
REMARK  145  A    between atoms: _358  and  _359
REMARK  146  A    between atoms: _358  and  _361
REMARK  147  A    between atoms: _361  and  _362
REMARK  148  A    between atoms: _365  and  _367
REMARK  149  A    between atoms: _367  and  _368
REMARK  150  A    between atoms: _367  and  _370
REMARK  151  A    between atoms: _370  and  _371
REMARK  152  A    between atoms: _374  and  _376
REMARK  153  A    between atoms: _376  and  _377
REMARK  154  A    between atoms: _380  and  _382
REMARK  155  A    between atoms: _382  and  _383
REMARK  156  A    between atoms: _382  and  _385
REMARK  157  A    between atoms: _385  and  _386
REMARK  158  A    between atoms: _386  and  _387
REMARK  159  A    between atoms: _387  and  _388
REMARK  160  A    between atoms: _397  and  _399
REMARK  161  A    between atoms: _399  and  _400
REMARK  162  A    between atoms: _402  and  _404
REMARK  163  A    between atoms: _404  and  _405
REMARK  164  A    between atoms: _404  and  _407
REMARK  165  A    between atoms: _407  and  _408
REMARK  166  A    between atoms: _414  and  _416
REMARK  167  A    between atoms: _416  and  _417
REMARK  168  A    between atoms: _416  and  _419
REMARK  169  A    between atoms: _419  and  _420
REMARK  170  A    between atoms: _423  and  _425
REMARK  171  A    between atoms: _425  and  _426
REMARK  172  A    between atoms: _425  and  _428
REMARK  173  A    between atoms: _428  and  _429
REMARK  174  A    between atoms: _434  and  _436
REMARK  175  A    between atoms: _436  and  _437
REMARK  176  A    between atoms: _436  and  _439
REMARK  177  A    between atoms: _439  and  _440
REMARK  178  A    between atoms: _443  and  _445
REMARK  179  A    between atoms: _445  and  _446
REMARK  180  A    between atoms: _445  and  _448
REMARK  181  A    between atoms: _448  and  _449
REMARK  182  A    between atoms: _454  and  _455
REMARK  183  A    between atoms: _457  and  _459
REMARK  184  A    between atoms: _459  and  _460
REMARK  185  A    between atoms: _459  and  _462
REMARK  186  A    between atoms: _462  and  _463
REMARK  187  A    between atoms: _466  and  _468
REMARK  188  A    between atoms: _468  and  _469
REMARK  189  A    between atoms: _468  and  _471
REMARK  190  A    between atoms: _471  and  _472
REMARK  191  A    between atoms: _472  and  _473
REMARK  192  A    between atoms: _476  and  _478
REMARK  193  A    between atoms: _478  and  _479
REMARK  194  A    between atoms: _478  and  _481
REMARK  195  A    between atoms: _481  and  _482
REMARK  196  A    between atoms: _485  and  _487
REMARK  197  A    between atoms: _487  and  _488
REMARK  198  A    between atoms: _490  and  _492
REMARK  199  A    between atoms: _492  and  _493
REMARK  200  A    between atoms: _495  and  _497
REMARK  201  A    between atoms: _497  and  _498
REMARK  202  A    between atoms: _497  and  _500
REMARK  203  A    between atoms: _500  and  _501
REMARK  204  A    between atoms: _501  and  _502
REMARK  205  A    between atoms: _507  and  _509
REMARK  206  A    between atoms: _509  and  _510
REMARK  207  A    between atoms: _513  and  _515
REMARK  208  A    between atoms: _515  and  _516
REMARK  209  A    between atoms: _515  and  _518
REMARK  210  A    between atoms: _518  and  _519
REMARK  211  A    between atoms: _522  and  _524
REMARK  212  A    between atoms: _524  and  _525
REMARK  213  A    between atoms: _524  and  _527
REMARK  214  A    between atoms: _527  and  _528
REMARK  215  A    between atoms: _528  and  _529
REMARK  216  A    between atoms: _534  and  _536
REMARK  217  A    between atoms: _536  and  _537
REMARK  218  A    between atoms: _536  and  _539
REMARK  219  A    between atoms: _539  and  _540
REMARK  220  A    between atoms: _543  and  _545
REMARK  221  A    between atoms: _545  and  _546
REMARK  222  A    between atoms: _545  and  _548
REMARK  223  A    between atoms: _548  and  _549
REMARK  224  A    between atoms: _549  and  _550
REMARK  225  A    between atoms: _550  and  _551
REMARK                            x       y       z     vdW  Elec       q    Type
REMARK                         _______ _______ _______ _____ _____    ______ ____
ROOT
ATOM      1  O   HOH     1      10.885  26.631  52.437  0.00  0.00    +0.000 OA
ENDROOT
TORSDOF 0
REMARK  Name = ../refined-set-2016/4r73/4r73_pocket.pdb
REMARK  225 active torsions:
REMARK  status: ('A' for Active; 'I' for Inactive)
REMARK    1  A    between atoms: _1  and  _3
REMARK    2  A    between atoms: _3  and  _4
REMARK    3  A    between atoms: _3  and  _6
REMARK    4  A    between atoms: _8  and  _10
REMARK    5  A    between atoms: _10  and  _11
REMARK    6  A    between atoms: _10  and  _13
REMARK    7  A    between atoms: _13  and  _14
REMARK    8  A    between atoms: _16  and  _18
REMARK    9  A    between atoms: _18  and  _19
REMARK   10  A    between atoms: _22  and  _24
REMARK   11  A    between atoms: _24  and  _25
REMARK   12  A    between atoms: _24  and  _27
REMARK   13  A    between atoms: _27  and  _28
REMARK   14  A    between atoms: _31  and  _33
REMARK   15  A    between atoms: _33  and  _34
REMARK   16  A    between atoms: _33  and  _36
REMARK   17  A    between atoms: _36  and  _37
REMARK   18  A    between atoms: _42  and  _44
REMARK   19  A    between atoms: _44  and  _45
REMARK   20  A    between atoms: _44  and  _47
REMARK   21  A    between atoms: _47  and  _48
REMARK   22  A    between atoms: _48  and  _49
REMARK   23  A    between atoms: _51  and  _53
REMARK   24  A    between atoms: _53  and  _54
REMARK   25  A    between atoms: _53  and  _56
REMARK   26  A    between atoms: _56  and  _57
REMARK   27  A    between atoms: _57  and  _58
REMARK   28  A    between atoms: _58  and  _59
REMARK   29  A    between atoms: _68  and  _70
REMARK   30  A    between atoms: _70  and  _71
REMARK   31  A    between atoms: _70  and  _73
REMARK   32  A    between atoms: _73  and  _74
REMARK   33  A    between atoms: _79  and  _81
REMARK   34  A    between atoms: _81  and  _82
REMARK   35  A    between atoms: _84  and  _86
REMARK   36  A    between atoms: _86  and  _87
REMARK   37  A    between atoms: _86  and  _89
REMARK   38  A    between atoms: _89  and  _90
REMARK   39  A    between atoms: _92  and  _94
REMARK   40  A    between atoms: _94  and  _95
REMARK   41  A    between atoms: _97  and  _99
REMARK   42  A    between atoms: _99  and  _100
REMARK   43  A    between atoms: _99  and  _102
REMARK   44  A    between atoms: _102  and  _103
REMARK   45  A    between atoms: _105  and  _107
REMARK   46  A    between atoms: _107  and  _108
REMARK   47  A    between atoms: _107  and  _110
REMARK   48  A    between atoms: _110  and  _111
REMARK   49  A    between atoms: _114  and  _116
REMARK   50  A    between atoms: _116  and  _117
REMARK   51  A    between atoms: _116  and  _119
REMARK   52  A    between atoms: _119  and  _120
REMARK   53  A    between atoms: _126  and  _128
REMARK   54  A    between atoms: _128  and  _129
REMARK   55  A    between atoms: _128  and  _131
REMARK   56  A    between atoms: _131  and  _132
REMARK   57  A    between atoms: _142  and  _144
REMARK   58  A    between atoms: _144  and  _145
REMARK   59  A    between atoms: _144  and  _147
REMARK   60  A    between atoms: _147  and  _148
REMARK   61  A    between atoms: _153  and  _154
REMARK   62  A    between atoms: _156  and  _158
REMARK   63  A    between atoms: _158  and  _159
REMARK   64  A    between atoms: _161  and  _163
REMARK   65  A    between atoms: _163  and  _164
REMARK   66  A    between atoms: _166  and  _168
REMARK   67  A    between atoms: _168  and  _169
REMARK   68  A    between atoms: _168  and  _171
REMARK   69  A    between atoms: _171  and  _172
REMARK   70  A    between atoms: _175  and  _177
REMARK   71  A    between atoms: _177  and  _178
REMARK   72  A    between atoms: _177  and  _180
REMARK   73  A    between atoms: _180  and  _181
REMARK   74  A    between atoms: _185  and  _186
REMARK   75  A    between atoms: _191  and  _193
REMARK   76  A    between atoms: _193  and  _194
REMARK   77  A    between atoms: _193  and  _196
REMARK   78  A    between atoms: _196  and  _197
REMARK   79  A    between atoms: _197  and  _198
REMARK   80  A    between atoms: _203  and  _205
REMARK   81  A    between atoms: _205  and  _206
REMARK   82  A    between atoms: _205  and  _208
REMARK   83  A    between atoms: _208  and  _209
REMARK   84  A    between atoms: _214  and  _215
REMARK   85  A    between atoms: _217  and  _219
REMARK   86  A    between atoms: _219  and  _220
REMARK   87  A    between atoms: _219  and  _222
REMARK   88  A    between atoms: _222  and  _223
REMARK   89  A    between atoms: _226  and  _228
REMARK   90  A    between atoms: _228  and  _229
REMARK   91  A    between atoms: _231  and  _233
REMARK   92  A    between atoms: _233  and  _234
REMARK   93  A    between atoms: _233  and  _236
REMARK   94  A    between atoms: _236  and  _237
REMARK   95  A    between atoms: _240  and  _242
REMARK   96  A    between atoms: _242  and  _243
REMARK   97  A    between atoms: _246  and  _248
REMARK   98  A    between atoms: _248  and  _249
REMARK   99  A    between atoms: _248  and  _251
REMARK  100  A    between atoms: _251  and  _252
REMARK  101  A    between atoms: _256  and  _257
REMARK  102  A    between atoms: _262  and  _264
REMARK  103  A    between atoms: _264  and  _265
REMARK  104  A    between atoms: _264  and  _267
REMARK  105  A    between atoms: _267  and  _268
REMARK  106  A    between atoms: _270  and  _272
REMARK  107  A    between atoms: _272  and  _273
REMARK  108  A    between atoms: _272  and  _275
REMARK  109  A    between atoms: _275  and  _276
REMARK  110  A    between atoms: _278  and  _280
REMARK  111  A    between atoms: _280  and  _281
REMARK  112  A    between atoms: _283  and  _285
REMARK  113  A    between atoms: _285  and  _286
REMARK  114  A    between atoms: _285  and  _288
REMARK  115  A    between atoms: _288  and  _289
REMARK  116  A    between atoms: _292  and  _294
REMARK  117  A    between atoms: _294  and  _295
REMARK  118  A    between atoms: _298  and  _300
REMARK  119  A    between atoms: _300  and  _301
REMARK  120  A    between atoms: _300  and  _303
REMARK  121  A    between atoms: _303  and  _304
REMARK  122  A    between atoms: _309  and  _310
REMARK  123  A    between atoms: _312  and  _314
REMARK  124  A    between atoms: _314  and  _315
REMARK  125  A    between atoms: _314  and  _317
REMARK  126  A    between atoms: _317  and  _318
REMARK  127  A    between atoms: _321  and  _323
REMARK  128  A    between atoms: _323  and  _324
REMARK  129  A    between atoms: _323  and  _326
REMARK  130  A    between atoms: _326  and  _327
REMARK  131  A    between atoms: _330  and  _332
REMARK  132  A    between atoms: _332  and  _333
REMARK  133  A    between atoms: _332  and  _335
REMARK  134  A    between atoms: _335  and  _336
REMARK  135  A    between atoms: _336  and  _337
REMARK  136  A    between atoms: _337  and  _338
REMARK  137  A    between atoms: _338  and  _339
REMARK  138  A    between atoms: _343  and  _345
REMARK  139  A    between atoms: _345  and  _346
REMARK  140  A    between atoms: _345  and  _348
REMARK  141  A    between atoms: _348  and  _349
REMARK  142  A    between atoms: _351  and  _353
REMARK  143  A    between atoms: _353  and  _354
REMARK  144  A    between atoms: _356  and  _358
REMARK  145  A    between atoms: _358  and  _359
REMARK  146  A    between atoms: _358  and  _361
REMARK  147  A    between atoms: _361  and  _362
REMARK  148  A    between atoms: _365  and  _367
REMARK  149  A    between atoms: _367  and  _368
REMARK  150  A    between atoms: _367  and  _370
REMARK  151  A    between atoms: _370  and  _371
REMARK  152  A    between atoms: _374  and  _376
REMARK  153  A    between atoms: _376  and  _377
REMARK  154  A    between atoms: _380  and  _382
REMARK  155  A    between atoms: _382  and  _383
REMARK  156  A    between atoms: _382  and  _385
REMARK  157  A    between atoms: _385  and  _386
REMARK  158  A    between atoms: _386  and  _387
REMARK  159  A    between atoms: _387  and  _388
REMARK  160  A    between atoms: _397  and  _399
REMARK  161  A    between atoms: _399  and  _400
REMARK  162  A    between atoms: _402  and  _404
REMARK  163  A    between atoms: _404  and  _405
REMARK  164  A    between atoms: _404  and  _407
REMARK  165  A    between atoms: _407  and  _408
REMARK  166  A    between atoms: _414  and  _416
REMARK  167  A    between atoms: _416  and  _417
REMARK  168  A    between atoms: _416  and  _419
REMARK  169  A    between atoms: _419  and  _420
REMARK  170  A    between atoms: _423  and  _425
REMARK  171  A    between atoms: _425  and  _426
REMARK  172  A    between atoms: _425  and  _428
REMARK  173  A    between atoms: _428  and  _429
REMARK  174  A    between atoms: _434  and  _436
REMARK  175  A    between atoms: _436  and  _437
REMARK  176  A    between atoms: _436  and  _439
REMARK  177  A    between atoms: _439  and  _440
REMARK  178  A    between atoms: _443  and  _445
REMARK  179  A    between atoms: _445  and  _446
REMARK  180  A    between atoms: _445  and  _448
REMARK  181  A    between atoms: _448  and  _449
REMARK  182  A    between atoms: _454  and  _455
REMARK  183  A    between atoms: _457  and  _459
REMARK  184  A    between atoms: _459  and  _460
REMARK  185  A    between atoms: _459  and  _462
REMARK  186  A    between atoms: _462  and  _463
REMARK  187  A    between atoms: _466  and  _468
REMARK  188  A    between atoms: _468  and  _469
REMARK  189  A    between atoms: _468  and  _471
REMARK  190  A    between atoms: _471  and  _472
REMARK  191  A    between atoms: _472  and  _473
REMARK  192  A    between atoms: _476  and  _478
REMARK  193  A    between atoms: _478  and  _479
REMARK  194  A    between atoms: _478  and  _481
REMARK  195  A    between atoms: _481  and  _482
REMARK  196  A    between atoms: _485  and  _487
REMARK  197  A    between atoms: _487  and  _488
REMARK  198  A    between atoms: _490  and  _492
REMARK  199  A    between atoms: _492  and  _493
REMARK  200  A    between atoms: _495  and  _497
REMARK  201  A    between atoms: _497  and  _498
REMARK  202  A    between atoms: _497  and  _500
REMARK  203  A    between atoms: _500  and  _501
REMARK  204  A    between atoms: _501  and  _502
REMARK  205  A    between atoms: _507  and  _509
REMARK  206  A    between atoms: _509  and  _510
REMARK  207  A    between atoms: _513  and  _515
REMARK  208  A    between atoms: _515  and  _516
REMARK  209  A    between atoms: _515  and  _518
REMARK  210  A    between atoms: _518  and  _519
REMARK  211  A    between atoms: _522  and  _524
REMARK  212  A    between atoms: _524  and  _525
REMARK  213  A    between atoms: _524  and  _527
REMARK  214  A    between atoms: _527  and  _528
REMARK  215  A    between atoms: _528  and  _529
REMARK  216  A    between atoms: _534  and  _536
REMARK  217  A    between atoms: _536  and  _537
REMARK  218  A    between atoms: _536  and  _539
REMARK  219  A    between atoms: _539  and  _540
REMARK  220  A    between atoms: _543  and  _545
REMARK  221  A    between atoms: _545  and  _546
REMARK  222  A    between atoms: _545  and  _548
REMARK  223  A    between atoms: _548  and  _549
REMARK  224  A    between atoms: _549  and  _550
REMARK  225  A    between atoms: _550  and  _551
REMARK                            x       y       z     vdW  Elec       q    Type
REMARK                         _______ _______ _______ _____ _____    ______ ____
ROOT
ATOM      1  O   HOH     1       3.222  28.359  50.632  0.00  0.00    +0.000 OA
ENDROOT
TORSDOF 0
REMARK  Name = ../refined-set-2016/4r73/4r73_pocket.pdb
REMARK  225 active torsions:
REMARK  status: ('A' for Active; 'I' for Inactive)
REMARK    1  A    between atoms: _1  and  _3
REMARK    2  A    between atoms: _3  and  _4
REMARK    3  A    between atoms: _3  and  _6
REMARK    4  A    between atoms: _8  and  _10
REMARK    5  A    between atoms: _10  and  _11
REMARK    6  A    between atoms: _10  and  _13
REMARK    7  A    between atoms: _13  and  _14
REMARK    8  A    between atoms: _16  and  _18
REMARK    9  A    between atoms: _18  and  _19
REMARK   10  A    between atoms: _22  and  _24
REMARK   11  A    between atoms: _24  and  _25
REMARK   12  A    between atoms: _24  and  _27
REMARK   13  A    between atoms: _27  and  _28
REMARK   14  A    between atoms: _31  and  _33
REMARK   15  A    between atoms: _33  and  _34
REMARK   16  A    between atoms: _33  and  _36
REMARK   17  A    between atoms: _36  and  _37
REMARK   18  A    between atoms: _42  and  _44
REMARK   19  A    between atoms: _44  and  _45
REMARK   20  A    between atoms: _44  and  _47
REMARK   21  A    between atoms: _47  and  _48
REMARK   22  A    between atoms: _48  and  _49
REMARK   23  A    between atoms: _51  and  _53
REMARK   24  A    between atoms: _53  and  _54
REMARK   25  A    between atoms: _53  and  _56
REMARK   26  A    between atoms: _56  and  _57
REMARK   27  A    between atoms: _57  and  _58
REMARK   28  A    between atoms: _58  and  _59
REMARK   29  A    between atoms: _68  and  _70
REMARK   30  A    between atoms: _70  and  _71
REMARK   31  A    between atoms: _70  and  _73
REMARK   32  A    between atoms: _73  and  _74
REMARK   33  A    between atoms: _79  and  _81
REMARK   34  A    between atoms: _81  and  _82
REMARK   35  A    between atoms: _84  and  _86
REMARK   36  A    between atoms: _86  and  _87
REMARK   37  A    between atoms: _86  and  _89
REMARK   38  A    between atoms: _89  and  _90
REMARK   39  A    between atoms: _92  and  _94
REMARK   40  A    between atoms: _94  and  _95
REMARK   41  A    between atoms: _97  and  _99
REMARK   42  A    between atoms: _99  and  _100
REMARK   43  A    between atoms: _99  and  _102
REMARK   44  A    between atoms: _102  and  _103
REMARK   45  A    between atoms: _105  and  _107
REMARK   46  A    between atoms: _107  and  _108
REMARK   47  A    between atoms: _107  and  _110
REMARK   48  A    between atoms: _110  and  _111
REMARK   49  A    between atoms: _114  and  _116
REMARK   50  A    between atoms: _116  and  _117
REMARK   51  A    between atoms: _116  and  _119
REMARK   52  A    between atoms: _119  and  _120
REMARK   53  A    between atoms: _126  and  _128
REMARK   54  A    between atoms: _128  and  _129
REMARK   55  A    between atoms: _128  and  _131
REMARK   56  A    between atoms: _131  and  _132
REMARK   57  A    between atoms: _142  and  _144
REMARK   58  A    between atoms: _144  and  _145
REMARK   59  A    between atoms: _144  and  _147
REMARK   60  A    between atoms: _147  and  _148
REMARK   61  A    between atoms: _153  and  _154
REMARK   62  A    between atoms: _156  and  _158
REMARK   63  A    between atoms: _158  and  _159
REMARK   64  A    between atoms: _161  and  _163
REMARK   65  A    between atoms: _163  and  _164
REMARK   66  A    between atoms: _166  and  _168
REMARK   67  A    between atoms: _168  and  _169
REMARK   68  A    between atoms: _168  and  _171
REMARK   69  A    between atoms: _171  and  _172
REMARK   70  A    between atoms: _175  and  _177
REMARK   71  A    between atoms: _177  and  _178
REMARK   72  A    between atoms: _177  and  _180
REMARK   73  A    between atoms: _180  and  _181
REMARK   74  A    between atoms: _185  and  _186
REMARK   75  A    between atoms: _191  and  _193
REMARK   76  A    between atoms: _193  and  _194
REMARK   77  A    between atoms: _193  and  _196
REMARK   78  A    between atoms: _196  and  _197
REMARK   79  A    between atoms: _197  and  _198
REMARK   80  A    between atoms: _203  and  _205
REMARK   81  A    between atoms: _205  and  _206
REMARK   82  A    between atoms: _205  and  _208
REMARK   83  A    between atoms: _208  and  _209
REMARK   84  A    between atoms: _214  and  _215
REMARK   85  A    between atoms: _217  and  _219
REMARK   86  A    between atoms: _219  and  _220
REMARK   87  A    between atoms: _219  and  _222
REMARK   88  A    between atoms: _222  and  _223
REMARK   89  A    between atoms: _226  and  _228
REMARK   90  A    between atoms: _228  and  _229
REMARK   91  A    between atoms: _231  and  _233
REMARK   92  A    between atoms: _233  and  _234
REMARK   93  A    between atoms: _233  and  _236
REMARK   94  A    between atoms: _236  and  _237
REMARK   95  A    between atoms: _240  and  _242
REMARK   96  A    between atoms: _242  and  _243
REMARK   97  A    between atoms: _246  and  _248
REMARK   98  A    between atoms: _248  and  _249
REMARK   99  A    between atoms: _248  and  _251
REMARK  100  A    between atoms: _251  and  _252
REMARK  101  A    between atoms: _256  and  _257
REMARK  102  A    between atoms: _262  and  _264
REMARK  103  A    between atoms: _264  and  _265
REMARK  104  A    between atoms: _264  and  _267
REMARK  105  A    between atoms: _267  and  _268
REMARK  106  A    between atoms: _270  and  _272
REMARK  107  A    between atoms: _272  and  _273
REMARK  108  A    between atoms: _272  and  _275
REMARK  109  A    between atoms: _275  and  _276
REMARK  110  A    between atoms: _278  and  _280
REMARK  111  A    between atoms: _280  and  _281
REMARK  112  A    between atoms: _283  and  _285
REMARK  113  A    between atoms: _285  and  _286
REMARK  114  A    between atoms: _285  and  _288
REMARK  115  A    between atoms: _288  and  _289
REMARK  116  A    between atoms: _292  and  _294
REMARK  117  A    between atoms: _294  and  _295
REMARK  118  A    between atoms: _298  and  _300
REMARK  119  A    between atoms: _300  and  _301
REMARK  120  A    between atoms: _300  and  _303
REMARK  121  A    between atoms: _303  and  _304
REMARK  122  A    between atoms: _309  and  _310
REMARK  123  A    between atoms: _312  and  _314
REMARK  124  A    between atoms: _314  and  _315
REMARK  125  A    between atoms: _314  and  _317
REMARK  126  A    between atoms: _317  and  _318
REMARK  127  A    between atoms: _321  and  _323
REMARK  128  A    between atoms: _323  and  _324
REMARK  129  A    between atoms: _323  and  _326
REMARK  130  A    between atoms: _326  and  _327
REMARK  131  A    between atoms: _330  and  _332
REMARK  132  A    between atoms: _332  and  _333
REMARK  133  A    between atoms: _332  and  _335
REMARK  134  A    between atoms: _335  and  _336
REMARK  135  A    between atoms: _336  and  _337
REMARK  136  A    between atoms: _337  and  _338
REMARK  137  A    between atoms: _338  and  _339
REMARK  138  A    between atoms: _343  and  _345
REMARK  139  A    between atoms: _345  and  _346
REMARK  140  A    between atoms: _345  and  _348
REMARK  141  A    between atoms: _348  and  _349
REMARK  142  A    between atoms: _351  and  _353
REMARK  143  A    between atoms: _353  and  _354
REMARK  144  A    between atoms: _356  and  _358
REMARK  145  A    between atoms: _358  and  _359
REMARK  146  A    between atoms: _358  and  _361
REMARK  147  A    between atoms: _361  and  _362
REMARK  148  A    between atoms: _365  and  _367
REMARK  149  A    between atoms: _367  and  _368
REMARK  150  A    between atoms: _367  and  _370
REMARK  151  A    between atoms: _370  and  _371
REMARK  152  A    between atoms: _374  and  _376
REMARK  153  A    between atoms: _376  and  _377
REMARK  154  A    between atoms: _380  and  _382
REMARK  155  A    between atoms: _382  and  _383
REMARK  156  A    between atoms: _382  and  _385
REMARK  157  A    between atoms: _385  and  _386
REMARK  158  A    between atoms: _386  and  _387
REMARK  159  A    between atoms: _387  and  _388
REMARK  160  A    between atoms: _397  and  _399
REMARK  161  A    between atoms: _399  and  _400
REMARK  162  A    between atoms: _402  and  _404
REMARK  163  A    between atoms: _404  and  _405
REMARK  164  A    between atoms: _404  and  _407
REMARK  165  A    between atoms: _407  and  _408
REMARK  166  A    between atoms: _414  and  _416
REMARK  167  A    between atoms: _416  and  _417
REMARK  168  A    between atoms: _416  and  _419
REMARK  169  A    between atoms: _419  and  _420
REMARK  170  A    between atoms: _423  and  _425
REMARK  171  A    between atoms: _425  and  _426
REMARK  172  A    between atoms: _425  and  _428
REMARK  173  A    between atoms: _428  and  _429
REMARK  174  A    between atoms: _434  and  _436
REMARK  175  A    between atoms: _436  and  _437
REMARK  176  A    between atoms: _436  and  _439
REMARK  177  A    between atoms: _439  and  _440
REMARK  178  A    between atoms: _443  and  _445
REMARK  179  A    between atoms: _445  and  _446
REMARK  180  A    between atoms: _445  and  _448
REMARK  181  A    between atoms: _448  and  _449
REMARK  182  A    between atoms: _454  and  _455
REMARK  183  A    between atoms: _457  and  _459
REMARK  184  A    between atoms: _459  and  _460
REMARK  185  A    between atoms: _459  and  _462
REMARK  186  A    between atoms: _462  and  _463
REMARK  187  A    between atoms: _466  and  _468
REMARK  188  A    between atoms: _468  and  _469
REMARK  189  A    between atoms: _468  and  _471
REMARK  190  A    between atoms: _471  and  _472
REMARK  191  A    between atoms: _472  and  _473
REMARK  192  A    between atoms: _476  and  _478
REMARK  193  A    between atoms: _478  and  _479
REMARK  194  A    between atoms: _478  and  _481
REMARK  195  A    between atoms: _481  and  _482
REMARK  196  A    between atoms: _485  and  _487
REMARK  197  A    between atoms: _487  and  _488
REMARK  198  A    between atoms: _490  and  _492
REMARK  199  A    between atoms: _492  and  _493
REMARK  200  A    between atoms: _495  and  _497
REMARK  201  A    between atoms: _497  and  _498
REMARK  202  A    between atoms: _497  and  _500
REMARK  203  A    between atoms: _500  and  _501
REMARK  204  A    between atoms: _501  and  _502
REMARK  205  A    between atoms: _507  and  _509
REMARK  206  A    between atoms: _509  and  _510
REMARK  207  A    between atoms: _513  and  _515
REMARK  208  A    between atoms: _515  and  _516
REMARK  209  A    between atoms: _515  and  _518
REMARK  210  A    between atoms: _518  and  _519
REMARK  211  A    between atoms: _522  and  _524
REMARK  212  A    between atoms: _524  and  _525
REMARK  213  A    between atoms: _524  and  _527
REMARK  214  A    between atoms: _527  and  _528
REMARK  215  A    between atoms: _528  and  _529
REMARK  216  A    between atoms: _534  and  _536
REMARK  217  A    between atoms: _536  and  _537
REMARK  218  A    between atoms: _536  and  _539
REMARK  219  A    between atoms: _539  and  _540
REMARK  220  A    between atoms: _543  and  _545
REMARK  221  A    between atoms: _545  and  _546
REMARK  222  A    between atoms: _545  and  _548
REMARK  223  A    between atoms: _548  and  _549
REMARK  224  A    between atoms: _549  and  _550
REMARK  225  A    between atoms: _550  and  _551
REMARK                            x       y       z     vdW  Elec       q    Type
REMARK                         _______ _______ _______ _____ _____    ______ ____
ROOT
ATOM      1  O   HOH     1      17.270  30.744  55.250  0.00  0.00    +0.000 OA
ENDROOT
TORSDOF 0
REMARK  Name = ../refined-set-2016/4r73/4r73_pocket.pdb
REMARK  225 active torsions:
REMARK  status: ('A' for Active; 'I' for Inactive)
REMARK    1  A    between atoms: _1  and  _3
REMARK    2  A    between atoms: _3  and  _4
REMARK    3  A    between atoms: _3  and  _6
REMARK    4  A    between atoms: _8  and  _10
REMARK    5  A    between atoms: _10  and  _11
REMARK    6  A    between atoms: _10  and  _13
REMARK    7  A    between atoms: _13  and  _14
REMARK    8  A    between atoms: _16  and  _18
REMARK    9  A    between atoms: _18  and  _19
REMARK   10  A    between atoms: _22  and  _24
REMARK   11  A    between atoms: _24  and  _25
REMARK   12  A    between atoms: _24  and  _27
REMARK   13  A    between atoms: _27  and  _28
REMARK   14  A    between atoms: _31  and  _33
REMARK   15  A    between atoms: _33  and  _34
REMARK   16  A    between atoms: _33  and  _36
REMARK   17  A    between atoms: _36  and  _37
REMARK   18  A    between atoms: _42  and  _44
REMARK   19  A    between atoms: _44  and  _45
REMARK   20  A    between atoms: _44  and  _47
REMARK   21  A    between atoms: _47  and  _48
REMARK   22  A    between atoms: _48  and  _49
REMARK   23  A    between atoms: _51  and  _53
REMARK   24  A    between atoms: _53  and  _54
REMARK   25  A    between atoms: _53  and  _56
REMARK   26  A    between atoms: _56  and  _57
REMARK   27  A    between atoms: _57  and  _58
REMARK   28  A    between atoms: _58  and  _59
REMARK   29  A    between atoms: _68  and  _70
REMARK   30  A    between atoms: _70  and  _71
REMARK   31  A    between atoms: _70  and  _73
REMARK   32  A    between atoms: _73  and  _74
REMARK   33  A    between atoms: _79  and  _81
REMARK   34  A    between atoms: _81  and  _82
REMARK   35  A    between atoms: _84  and  _86
REMARK   36  A    between atoms: _86  and  _87
REMARK   37  A    between atoms: _86  and  _89
REMARK   38  A    between atoms: _89  and  _90
REMARK   39  A    between atoms: _92  and  _94
REMARK   40  A    between atoms: _94  and  _95
REMARK   41  A    between atoms: _97  and  _99
REMARK   42  A    between atoms: _99  and  _100
REMARK   43  A    between atoms: _99  and  _102
REMARK   44  A    between atoms: _102  and  _103
REMARK   45  A    between atoms: _105  and  _107
REMARK   46  A    between atoms: _107  and  _108
REMARK   47  A    between atoms: _107  and  _110
REMARK   48  A    between atoms: _110  and  _111
REMARK   49  A    between atoms: _114  and  _116
REMARK   50  A    between atoms: _116  and  _117
REMARK   51  A    between atoms: _116  and  _119
REMARK   52  A    between atoms: _119  and  _120
REMARK   53  A    between atoms: _126  and  _128
REMARK   54  A    between atoms: _128  and  _129
REMARK   55  A    between atoms: _128  and  _131
REMARK   56  A    between atoms: _131  and  _132
REMARK   57  A    between atoms: _142  and  _144
REMARK   58  A    between atoms: _144  and  _145
REMARK   59  A    between atoms: _144  and  _147
REMARK   60  A    between atoms: _147  and  _148
REMARK   61  A    between atoms: _153  and  _154
REMARK   62  A    between atoms: _156  and  _158
REMARK   63  A    between atoms: _158  and  _159
REMARK   64  A    between atoms: _161  and  _163
REMARK   65  A    between atoms: _163  and  _164
REMARK   66  A    between atoms: _166  and  _168
REMARK   67  A    between atoms: _168  and  _169
REMARK   68  A    between atoms: _168  and  _171
REMARK   69  A    between atoms: _171  and  _172
REMARK   70  A    between atoms: _175  and  _177
REMARK   71  A    between atoms: _177  and  _178
REMARK   72  A    between atoms: _177  and  _180
REMARK   73  A    between atoms: _180  and  _181
REMARK   74  A    between atoms: _185  and  _186
REMARK   75  A    between atoms: _191  and  _193
REMARK   76  A    between atoms: _193  and  _194
REMARK   77  A    between atoms: _193  and  _196
REMARK   78  A    between atoms: _196  and  _197
REMARK   79  A    between atoms: _197  and  _198
REMARK   80  A    between atoms: _203  and  _205
REMARK   81  A    between atoms: _205  and  _206
REMARK   82  A    between atoms: _205  and  _208
REMARK   83  A    between atoms: _208  and  _209
REMARK   84  A    between atoms: _214  and  _215
REMARK   85  A    between atoms: _217  and  _219
REMARK   86  A    between atoms: _219  and  _220
REMARK   87  A    between atoms: _219  and  _222
REMARK   88  A    between atoms: _222  and  _223
REMARK   89  A    between atoms: _226  and  _228
REMARK   90  A    between atoms: _228  and  _229
REMARK   91  A    between atoms: _231  and  _233
REMARK   92  A    between atoms: _233  and  _234
REMARK   93  A    between atoms: _233  and  _236
REMARK   94  A    between atoms: _236  and  _237
REMARK   95  A    between atoms: _240  and  _242
REMARK   96  A    between atoms: _242  and  _243
REMARK   97  A    between atoms: _246  and  _248
REMARK   98  A    between atoms: _248  and  _249
REMARK   99  A    between atoms: _248  and  _251
REMARK  100  A    between atoms: _251  and  _252
REMARK  101  A    between atoms: _256  and  _257
REMARK  102  A    between atoms: _262  and  _264
REMARK  103  A    between atoms: _264  and  _265
REMARK  104  A    between atoms: _264  and  _267
REMARK  105  A    between atoms: _267  and  _268
REMARK  106  A    between atoms: _270  and  _272
REMARK  107  A    between atoms: _272  and  _273
REMARK  108  A    between atoms: _272  and  _275
REMARK  109  A    between atoms: _275  and  _276
REMARK  110  A    between atoms: _278  and  _280
REMARK  111  A    between atoms: _280  and  _281
REMARK  112  A    between atoms: _283  and  _285
REMARK  113  A    between atoms: _285  and  _286
REMARK  114  A    between atoms: _285  and  _288
REMARK  115  A    between atoms: _288  and  _289
REMARK  116  A    between atoms: _292  and  _294
REMARK  117  A    between atoms: _294  and  _295
REMARK  118  A    between atoms: _298  and  _300
REMARK  119  A    between atoms: _300  and  _301
REMARK  120  A    between atoms: _300  and  _303
REMARK  121  A    between atoms: _303  and  _304
REMARK  122  A    between atoms: _309  and  _310
REMARK  123  A    between atoms: _312  and  _314
REMARK  124  A    between atoms: _314  and  _315
REMARK  125  A    between atoms: _314  and  _317
REMARK  126  A    between atoms: _317  and  _318
REMARK  127  A    between atoms: _321  and  _323
REMARK  128  A    between atoms: _323  and  _324
REMARK  129  A    between atoms: _323  and  _326
REMARK  130  A    between atoms: _326  and  _327
REMARK  131  A    between atoms: _330  and  _332
REMARK  132  A    between atoms: _332  and  _333
REMARK  133  A    between atoms: _332  and  _335
REMARK  134  A    between atoms: _335  and  _336
REMARK  135  A    between atoms: _336  and  _337
REMARK  136  A    between atoms: _337  and  _338
REMARK  137  A    between atoms: _338  and  _339
REMARK  138  A    between atoms: _343  and  _345
REMARK  139  A    between atoms: _345  and  _346
REMARK  140  A    between atoms: _345  and  _348
REMARK  141  A    between atoms: _348  and  _349
REMARK  142  A    between atoms: _351  and  _353
REMARK  143  A    between atoms: _353  and  _354
REMARK  144  A    between atoms: _356  and  _358
REMARK  145  A    between atoms: _358  and  _359
REMARK  146  A    between atoms: _358  and  _361
REMARK  147  A    between atoms: _361  and  _362
REMARK  148  A    between atoms: _365  and  _367
REMARK  149  A    between atoms: _367  and  _368
REMARK  150  A    between atoms: _367  and  _370
REMARK  151  A    between atoms: _370  and  _371
REMARK  152  A    between atoms: _374  and  _376
REMARK  153  A    between atoms: _376  and  _377
REMARK  154  A    between atoms: _380  and  _382
REMARK  155  A    between atoms: _382  and  _383
REMARK  156  A    between atoms: _382  and  _385
REMARK  157  A    between atoms: _385  and  _386
REMARK  158  A    between atoms: _386  and  _387
REMARK  159  A    between atoms: _387  and  _388
REMARK  160  A    between atoms: _397  and  _399
REMARK  161  A    between atoms: _399  and  _400
REMARK  162  A    between atoms: _402  and  _404
REMARK  163  A    between atoms: _404  and  _405
REMARK  164  A    between atoms: _404  and  _407
REMARK  165  A    between atoms: _407  and  _408
REMARK  166  A    between atoms: _414  and  _416
REMARK  167  A    between atoms: _416  and  _417
REMARK  168  A    between atoms: _416  and  _419
REMARK  169  A    between atoms: _419  and  _420
REMARK  170  A    between atoms: _423  and  _425
REMARK  171  A    between atoms: _425  and  _426
REMARK  172  A    between atoms: _425  and  _428
REMARK  173  A    between atoms: _428  and  _429
REMARK  174  A    between atoms: _434  and  _436
REMARK  175  A    between atoms: _436  and  _437
REMARK  176  A    between atoms: _436  and  _439
REMARK  177  A    between atoms: _439  and  _440
REMARK  178  A    between atoms: _443  and  _445
REMARK  179  A    between atoms: _445  and  _446
REMARK  180  A    between atoms: _445  and  _448
REMARK  181  A    between atoms: _448  and  _449
REMARK  182  A    between atoms: _454  and  _455
REMARK  183  A    between atoms: _457  and  _459
REMARK  184  A    between atoms: _459  and  _460
REMARK  185  A    between atoms: _459  and  _462
REMARK  186  A    between atoms: _462  and  _463
REMARK  187  A    between atoms: _466  and  _468
REMARK  188  A    between atoms: _468  and  _469
REMARK  189  A    between atoms: _468  and  _471
REMARK  190  A    between atoms: _471  and  _472
REMARK  191  A    between atoms: _472  and  _473
REMARK  192  A    between atoms: _476  and  _478
REMARK  193  A    between atoms: _478  and  _479
REMARK  194  A    between atoms: _478  and  _481
REMARK  195  A    between atoms: _481  and  _482
REMARK  196  A    between atoms: _485  and  _487
REMARK  197  A    between atoms: _487  and  _488
REMARK  198  A    between atoms: _490  and  _492
REMARK  199  A    between atoms: _492  and  _493
REMARK  200  A    between atoms: _495  and  _497
REMARK  201  A    between atoms: _497  and  _498
REMARK  202  A    between atoms: _497  and  _500
REMARK  203  A    between atoms: _500  and  _501
REMARK  204  A    between atoms: _501  and  _502
REMARK  205  A    between atoms: _507  and  _509
REMARK  206  A    between atoms: _509  and  _510
REMARK  207  A    between atoms: _513  and  _515
REMARK  208  A    between atoms: _515  and  _516
REMARK  209  A    between atoms: _515  and  _518
REMARK  210  A    between atoms: _518  and  _519
REMARK  211  A    between atoms: _522  and  _524
REMARK  212  A    between atoms: _524  and  _525
REMARK  213  A    between atoms: _524  and  _527
REMARK  214  A    between atoms: _527  and  _528
REMARK  215  A    between atoms: _528  and  _529
REMARK  216  A    between atoms: _534  and  _536
REMARK  217  A    between atoms: _536  and  _537
REMARK  218  A    between atoms: _536  and  _539
REMARK  219  A    between atoms: _539  and  _540
REMARK  220  A    between atoms: _543  and  _545
REMARK  221  A    between atoms: _545  and  _546
REMARK  222  A    between atoms: _545  and  _548
REMARK  223  A    between atoms: _548  and  _549
REMARK  224  A    between atoms: _549  and  _550
REMARK  225  A    between atoms: _550  and  _551
REMARK                            x       y       z     vdW  Elec       q    Type
REMARK                         _______ _______ _______ _____ _____    ______ ____
ROOT
ATOM      1  O   HOH     1      15.098  30.491  54.744  0.00  0.00    +0.000 OA
ENDROOT
TORSDOF 0
REMARK  Name = ../refined-set-2016/4r73/4r73_pocket.pdb
REMARK  225 active torsions:
REMARK  status: ('A' for Active; 'I' for Inactive)
REMARK    1  A    between atoms: _1  and  _3
REMARK    2  A    between atoms: _3  and  _4
REMARK    3  A    between atoms: _3  and  _6
REMARK    4  A    between atoms: _8  and  _10
REMARK    5  A    between atoms: _10  and  _11
REMARK    6  A    between atoms: _10  and  _13
REMARK    7  A    between atoms: _13  and  _14
REMARK    8  A    between atoms: _16  and  _18
REMARK    9  A    between atoms: _18  and  _19
REMARK   10  A    between atoms: _22  and  _24
REMARK   11  A    between atoms: _24  and  _25
REMARK   12  A    between atoms: _24  and  _27
REMARK   13  A    between atoms: _27  and  _28
REMARK   14  A    between atoms: _31  and  _33
REMARK   15  A    between atoms: _33  and  _34
REMARK   16  A    between atoms: _33  and  _36
REMARK   17  A    between atoms: _36  and  _37
REMARK   18  A    between atoms: _42  and  _44
REMARK   19  A    between atoms: _44  and  _45
REMARK   20  A    between atoms: _44  and  _47
REMARK   21  A    between atoms: _47  and  _48
REMARK   22  A    between atoms: _48  and  _49
REMARK   23  A    between atoms: _51  and  _53
REMARK   24  A    between atoms: _53  and  _54
REMARK   25  A    between atoms: _53  and  _56
REMARK   26  A    between atoms: _56  and  _57
REMARK   27  A    between atoms: _57  and  _58
REMARK   28  A    between atoms: _58  and  _59
REMARK   29  A    between atoms: _68  and  _70
REMARK   30  A    between atoms: _70  and  _71
REMARK   31  A    between atoms: _70  and  _73
REMARK   32  A    between atoms: _73  and  _74
REMARK   33  A    between atoms: _79  and  _81
REMARK   34  A    between atoms: _81  and  _82
REMARK   35  A    between atoms: _84  and  _86
REMARK   36  A    between atoms: _86  and  _87
REMARK   37  A    between atoms: _86  and  _89
REMARK   38  A    between atoms: _89  and  _90
REMARK   39  A    between atoms: _92  and  _94
REMARK   40  A    between atoms: _94  and  _95
REMARK   41  A    between atoms: _97  and  _99
REMARK   42  A    between atoms: _99  and  _100
REMARK   43  A    between atoms: _99  and  _102
REMARK   44  A    between atoms: _102  and  _103
REMARK   45  A    between atoms: _105  and  _107
REMARK   46  A    between atoms: _107  and  _108
REMARK   47  A    between atoms: _107  and  _110
REMARK   48  A    between atoms: _110  and  _111
REMARK   49  A    between atoms: _114  and  _116
REMARK   50  A    between atoms: _116  and  _117
REMARK   51  A    between atoms: _116  and  _119
REMARK   52  A    between atoms: _119  and  _120
REMARK   53  A    between atoms: _126  and  _128
REMARK   54  A    between atoms: _128  and  _129
REMARK   55  A    between atoms: _128  and  _131
REMARK   56  A    between atoms: _131  and  _132
REMARK   57  A    between atoms: _142  and  _144
REMARK   58  A    between atoms: _144  and  _145
REMARK   59  A    between atoms: _144  and  _147
REMARK   60  A    between atoms: _147  and  _148
REMARK   61  A    between atoms: _153  and  _154
REMARK   62  A    between atoms: _156  and  _158
REMARK   63  A    between atoms: _158  and  _159
REMARK   64  A    between atoms: _161  and  _163
REMARK   65  A    between atoms: _163  and  _164
REMARK   66  A    between atoms: _166  and  _168
REMARK   67  A    between atoms: _168  and  _169
REMARK   68  A    between atoms: _168  and  _171
REMARK   69  A    between atoms: _171  and  _172
REMARK   70  A    between atoms: _175  and  _177
REMARK   71  A    between atoms: _177  and  _178
REMARK   72  A    between atoms: _177  and  _180
REMARK   73  A    between atoms: _180  and  _181
REMARK   74  A    between atoms: _185  and  _186
REMARK   75  A    between atoms: _191  and  _193
REMARK   76  A    between atoms: _193  and  _194
REMARK   77  A    between atoms: _193  and  _196
REMARK   78  A    between atoms: _196  and  _197
REMARK   79  A    between atoms: _197  and  _198
REMARK   80  A    between atoms: _203  and  _205
REMARK   81  A    between atoms: _205  and  _206
REMARK   82  A    between atoms: _205  and  _208
REMARK   83  A    between atoms: _208  and  _209
REMARK   84  A    between atoms: _214  and  _215
REMARK   85  A    between atoms: _217  and  _219
REMARK   86  A    between atoms: _219  and  _220
REMARK   87  A    between atoms: _219  and  _222
REMARK   88  A    between atoms: _222  and  _223
REMARK   89  A    between atoms: _226  and  _228
REMARK   90  A    between atoms: _228  and  _229
REMARK   91  A    between atoms: _231  and  _233
REMARK   92  A    between atoms: _233  and  _234
REMARK   93  A    between atoms: _233  and  _236
REMARK   94  A    between atoms: _236  and  _237
REMARK   95  A    between atoms: _240  and  _242
REMARK   96  A    between atoms: _242  and  _243
REMARK   97  A    between atoms: _246  and  _248
REMARK   98  A    between atoms: _248  and  _249
REMARK   99  A    between atoms: _248  and  _251
REMARK  100  A    between atoms: _251  and  _252
REMARK  101  A    between atoms: _256  and  _257
REMARK  102  A    between atoms: _262  and  _264
REMARK  103  A    between atoms: _264  and  _265
REMARK  104  A    between atoms: _264  and  _267
REMARK  105  A    between atoms: _267  and  _268
REMARK  106  A    between atoms: _270  and  _272
REMARK  107  A    between atoms: _272  and  _273
REMARK  108  A    between atoms: _272  and  _275
REMARK  109  A    between atoms: _275  and  _276
REMARK  110  A    between atoms: _278  and  _280
REMARK  111  A    between atoms: _280  and  _281
REMARK  112  A    between atoms: _283  and  _285
REMARK  113  A    between atoms: _285  and  _286
REMARK  114  A    between atoms: _285  and  _288
REMARK  115  A    between atoms: _288  and  _289
REMARK  116  A    between atoms: _292  and  _294
REMARK  117  A    between atoms: _294  and  _295
REMARK  118  A    between atoms: _298  and  _300
REMARK  119  A    between atoms: _300  and  _301
REMARK  120  A    between atoms: _300  and  _303
REMARK  121  A    between atoms: _303  and  _304
REMARK  122  A    between atoms: _309  and  _310
REMARK  123  A    between atoms: _312  and  _314
REMARK  124  A    between atoms: _314  and  _315
REMARK  125  A    between atoms: _314  and  _317
REMARK  126  A    between atoms: _317  and  _318
REMARK  127  A    between atoms: _321  and  _323
REMARK  128  A    between atoms: _323  and  _324
REMARK  129  A    between atoms: _323  and  _326
REMARK  130  A    between atoms: _326  and  _327
REMARK  131  A    between atoms: _330  and  _332
REMARK  132  A    between atoms: _332  and  _333
REMARK  133  A    between atoms: _332  and  _335
REMARK  134  A    between atoms: _335  and  _336
REMARK  135  A    between atoms: _336  and  _337
REMARK  136  A    between atoms: _337  and  _338
REMARK  137  A    between atoms: _338  and  _339
REMARK  138  A    between atoms: _343  and  _345
REMARK  139  A    between atoms: _345  and  _346
REMARK  140  A    between atoms: _345  and  _348
REMARK  141  A    between atoms: _348  and  _349
REMARK  142  A    between atoms: _351  and  _353
REMARK  143  A    between atoms: _353  and  _354
REMARK  144  A    between atoms: _356  and  _358
REMARK  145  A    between atoms: _358  and  _359
REMARK  146  A    between atoms: _358  and  _361
REMARK  147  A    between atoms: _361  and  _362
REMARK  148  A    between atoms: _365  and  _367
REMARK  149  A    between atoms: _367  and  _368
REMARK  150  A    between atoms: _367  and  _370
REMARK  151  A    between atoms: _370  and  _371
REMARK  152  A    between atoms: _374  and  _376
REMARK  153  A    between atoms: _376  and  _377
REMARK  154  A    between atoms: _380  and  _382
REMARK  155  A    between atoms: _382  and  _383
REMARK  156  A    between atoms: _382  and  _385
REMARK  157  A    between atoms: _385  and  _386
REMARK  158  A    between atoms: _386  and  _387
REMARK  159  A    between atoms: _387  and  _388
REMARK  160  A    between atoms: _397  and  _399
REMARK  161  A    between atoms: _399  and  _400
REMARK  162  A    between atoms: _402  and  _404
REMARK  163  A    between atoms: _404  and  _405
REMARK  164  A    between atoms: _404  and  _407
REMARK  165  A    between atoms: _407  and  _408
REMARK  166  A    between atoms: _414  and  _416
REMARK  167  A    between atoms: _416  and  _417
REMARK  168  A    between atoms: _416  and  _419
REMARK  169  A    between atoms: _419  and  _420
REMARK  170  A    between atoms: _423  and  _425
REMARK  171  A    between atoms: _425  and  _426
REMARK  172  A    between atoms: _425  and  _428
REMARK  173  A    between atoms: _428  and  _429
REMARK  174  A    between atoms: _434  and  _436
REMARK  175  A    between atoms: _436  and  _437
REMARK  176  A    between atoms: _436  and  _439
REMARK  177  A    between atoms: _439  and  _440
REMARK  178  A    between atoms: _443  and  _445
REMARK  179  A    between atoms: _445  and  _446
REMARK  180  A    between atoms: _445  and  _448
REMARK  181  A    between atoms: _448  and  _449
REMARK  182  A    between atoms: _454  and  _455
REMARK  183  A    between atoms: _457  and  _459
REMARK  184  A    between atoms: _459  and  _460
REMARK  185  A    between atoms: _459  and  _462
REMARK  186  A    between atoms: _462  and  _463
REMARK  187  A    between atoms: _466  and  _468
REMARK  188  A    between atoms: _468  and  _469
REMARK  189  A    between atoms: _468  and  _471
REMARK  190  A    between atoms: _471  and  _472
REMARK  191  A    between atoms: _472  and  _473
REMARK  192  A    between atoms: _476  and  _478
REMARK  193  A    between atoms: _478  and  _479
REMARK  194  A    between atoms: _478  and  _481
REMARK  195  A    between atoms: _481  and  _482
REMARK  196  A    between atoms: _485  and  _487
REMARK  197  A    between atoms: _487  and  _488
REMARK  198  A    between atoms: _490  and  _492
REMARK  199  A    between atoms: _492  and  _493
REMARK  200  A    between atoms: _495  and  _497
REMARK  201  A    between atoms: _497  and  _498
REMARK  202  A    between atoms: _497  and  _500
REMARK  203  A    between atoms: _500  and  _501
REMARK  204  A    between atoms: _501  and  _502
REMARK  205  A    between atoms: _507  and  _509
REMARK  206  A    between atoms: _509  and  _510
REMARK  207  A    between atoms: _513  and  _515
REMARK  208  A    between atoms: _515  and  _516
REMARK  209  A    between atoms: _515  and  _518
REMARK  210  A    between atoms: _518  and  _519
REMARK  211  A    between atoms: _522  and  _524
REMARK  212  A    between atoms: _524  and  _525
REMARK  213  A    between atoms: _524  and  _527
REMARK  214  A    between atoms: _527  and  _528
REMARK  215  A    between atoms: _528  and  _529
REMARK  216  A    between atoms: _534  and  _536
REMARK  217  A    between atoms: _536  and  _537
REMARK  218  A    between atoms: _536  and  _539
REMARK  219  A    between atoms: _539  and  _540
REMARK  220  A    between atoms: _543  and  _545
REMARK  221  A    between atoms: _545  and  _546
REMARK  222  A    between atoms: _545  and  _548
REMARK  223  A    between atoms: _548  and  _549
REMARK  224  A    between atoms: _549  and  _550
REMARK  225  A    between atoms: _550  and  _551
REMARK                            x       y       z     vdW  Elec       q    Type
REMARK                         _______ _______ _______ _____ _____    ______ ____
ROOT
ATOM      1  O   HOH     1      19.900  20.815  43.652  0.00  0.00    +0.000 OA
ENDROOT
TORSDOF 0
REMARK  Name = ../refined-set-2016/4r73/4r73_pocket.pdb
REMARK  225 active torsions:
REMARK  status: ('A' for Active; 'I' for Inactive)
REMARK    1  A    between atoms: _1  and  _3
REMARK    2  A    between atoms: _3  and  _4
REMARK    3  A    between atoms: _3  and  _6
REMARK    4  A    between atoms: _8  and  _10
REMARK    5  A    between atoms: _10  and  _11
REMARK    6  A    between atoms: _10  and  _13
REMARK    7  A    between atoms: _13  and  _14
REMARK    8  A    between atoms: _16  and  _18
REMARK    9  A    between atoms: _18  and  _19
REMARK   10  A    between atoms: _22  and  _24
REMARK   11  A    between atoms: _24  and  _25
REMARK   12  A    between atoms: _24  and  _27
REMARK   13  A    between atoms: _27  and  _28
REMARK   14  A    between atoms: _31  and  _33
REMARK   15  A    between atoms: _33  and  _34
REMARK   16  A    between atoms: _33  and  _36
REMARK   17  A    between atoms: _36  and  _37
REMARK   18  A    between atoms: _42  and  _44
REMARK   19  A    between atoms: _44  and  _45
REMARK   20  A    between atoms: _44  and  _47
REMARK   21  A    between atoms: _47  and  _48
REMARK   22  A    between atoms: _48  and  _49
REMARK   23  A    between atoms: _51  and  _53
REMARK   24  A    between atoms: _53  and  _54
REMARK   25  A    between atoms: _53  and  _56
REMARK   26  A    between atoms: _56  and  _57
REMARK   27  A    between atoms: _57  and  _58
REMARK   28  A    between atoms: _58  and  _59
REMARK   29  A    between atoms: _68  and  _70
REMARK   30  A    between atoms: _70  and  _71
REMARK   31  A    between atoms: _70  and  _73
REMARK   32  A    between atoms: _73  and  _74
REMARK   33  A    between atoms: _79  and  _81
REMARK   34  A    between atoms: _81  and  _82
REMARK   35  A    between atoms: _84  and  _86
REMARK   36  A    between atoms: _86  and  _87
REMARK   37  A    between atoms: _86  and  _89
REMARK   38  A    between atoms: _89  and  _90
REMARK   39  A    between atoms: _92  and  _94
REMARK   40  A    between atoms: _94  and  _95
REMARK   41  A    between atoms: _97  and  _99
REMARK   42  A    between atoms: _99  and  _100
REMARK   43  A    between atoms: _99  and  _102
REMARK   44  A    between atoms: _102  and  _103
REMARK   45  A    between atoms: _105  and  _107
REMARK   46  A    between atoms: _107  and  _108
REMARK   47  A    between atoms: _107  and  _110
REMARK   48  A    between atoms: _110  and  _111
REMARK   49  A    between atoms: _114  and  _116
REMARK   50  A    between atoms: _116  and  _117
REMARK   51  A    between atoms: _116  and  _119
REMARK   52  A    between atoms: _119  and  _120
REMARK   53  A    between atoms: _126  and  _128
REMARK   54  A    between atoms: _128  and  _129
REMARK   55  A    between atoms: _128  and  _131
REMARK   56  A    between atoms: _131  and  _132
REMARK   57  A    between atoms: _142  and  _144
REMARK   58  A    between atoms: _144  and  _145
REMARK   59  A    between atoms: _144  and  _147
REMARK   60  A    between atoms: _147  and  _148
REMARK   61  A    between atoms: _153  and  _154
REMARK   62  A    between atoms: _156  and  _158
REMARK   63  A    between atoms: _158  and  _159
REMARK   64  A    between atoms: _161  and  _163
REMARK   65  A    between atoms: _163  and  _164
REMARK   66  A    between atoms: _166  and  _168
REMARK   67  A    between atoms: _168  and  _169
REMARK   68  A    between atoms: _168  and  _171
REMARK   69  A    between atoms: _171  and  _172
REMARK   70  A    between atoms: _175  and  _177
REMARK   71  A    between atoms: _177  and  _178
REMARK   72  A    between atoms: _177  and  _180
REMARK   73  A    between atoms: _180  and  _181
REMARK   74  A    between atoms: _185  and  _186
REMARK   75  A    between atoms: _191  and  _193
REMARK   76  A    between atoms: _193  and  _194
REMARK   77  A    between atoms: _193  and  _196
REMARK   78  A    between atoms: _196  and  _197
REMARK   79  A    between atoms: _197  and  _198
REMARK   80  A    between atoms: _203  and  _205
REMARK   81  A    between atoms: _205  and  _206
REMARK   82  A    between atoms: _205  and  _208
REMARK   83  A    between atoms: _208  and  _209
REMARK   84  A    between atoms: _214  and  _215
REMARK   85  A    between atoms: _217  and  _219
REMARK   86  A    between atoms: _219  and  _220
REMARK   87  A    between atoms: _219  and  _222
REMARK   88  A    between atoms: _222  and  _223
REMARK   89  A    between atoms: _226  and  _228
REMARK   90  A    between atoms: _228  and  _229
REMARK   91  A    between atoms: _231  and  _233
REMARK   92  A    between atoms: _233  and  _234
REMARK   93  A    between atoms: _233  and  _236
REMARK   94  A    between atoms: _236  and  _237
REMARK   95  A    between atoms: _240  and  _242
REMARK   96  A    between atoms: _242  and  _243
REMARK   97  A    between atoms: _246  and  _248
REMARK   98  A    between atoms: _248  and  _249
REMARK   99  A    between atoms: _248  and  _251
REMARK  100  A    between atoms: _251  and  _252
REMARK  101  A    between atoms: _256  and  _257
REMARK  102  A    between atoms: _262  and  _264
REMARK  103  A    between atoms: _264  and  _265
REMARK  104  A    between atoms: _264  and  _267
REMARK  105  A    between atoms: _267  and  _268
REMARK  106  A    between atoms: _270  and  _272
REMARK  107  A    between atoms: _272  and  _273
REMARK  108  A    between atoms: _272  and  _275
REMARK  109  A    between atoms: _275  and  _276
REMARK  110  A    between atoms: _278  and  _280
REMARK  111  A    between atoms: _280  and  _281
REMARK  112  A    between atoms: _283  and  _285
REMARK  113  A    between atoms: _285  and  _286
REMARK  114  A    between atoms: _285  and  _288
REMARK  115  A    between atoms: _288  and  _289
REMARK  116  A    between atoms: _292  and  _294
REMARK  117  A    between atoms: _294  and  _295
REMARK  118  A    between atoms: _298  and  _300
REMARK  119  A    between atoms: _300  and  _301
REMARK  120  A    between atoms: _300  and  _303
REMARK  121  A    between atoms: _303  and  _304
REMARK  122  A    between atoms: _309  and  _310
REMARK  123  A    between atoms: _312  and  _314
REMARK  124  A    between atoms: _314  and  _315
REMARK  125  A    between atoms: _314  and  _317
REMARK  126  A    between atoms: _317  and  _318
REMARK  127  A    between atoms: _321  and  _323
REMARK  128  A    between atoms: _323  and  _324
REMARK  129  A    between atoms: _323  and  _326
REMARK  130  A    between atoms: _326  and  _327
REMARK  131  A    between atoms: _330  and  _332
REMARK  132  A    between atoms: _332  and  _333
REMARK  133  A    between atoms: _332  and  _335
REMARK  134  A    between atoms: _335  and  _336
REMARK  135  A    between atoms: _336  and  _337
REMARK  136  A    between atoms: _337  and  _338
REMARK  137  A    between atoms: _338  and  _339
REMARK  138  A    between atoms: _343  and  _345
REMARK  139  A    between atoms: _345  and  _346
REMARK  140  A    between atoms: _345  and  _348
REMARK  141  A    between atoms: _348  and  _349
REMARK  142  A    between atoms: _351  and  _353
REMARK  143  A    between atoms: _353  and  _354
REMARK  144  A    between atoms: _356  and  _358
REMARK  145  A    between atoms: _358  and  _359
REMARK  146  A    between atoms: _358  and  _361
REMARK  147  A    between atoms: _361  and  _362
REMARK  148  A    between atoms: _365  and  _367
REMARK  149  A    between atoms: _367  and  _368
REMARK  150  A    between atoms: _367  and  _370
REMARK  151  A    between atoms: _370  and  _371
REMARK  152  A    between atoms: _374  and  _376
REMARK  153  A    between atoms: _376  and  _377
REMARK  154  A    between atoms: _380  and  _382
REMARK  155  A    between atoms: _382  and  _383
REMARK  156  A    between atoms: _382  and  _385
REMARK  157  A    between atoms: _385  and  _386
REMARK  158  A    between atoms: _386  and  _387
REMARK  159  A    between atoms: _387  and  _388
REMARK  160  A    between atoms: _397  and  _399
REMARK  161  A    between atoms: _399  and  _400
REMARK  162  A    between atoms: _402  and  _404
REMARK  163  A    between atoms: _404  and  _405
REMARK  164  A    between atoms: _404  and  _407
REMARK  165  A    between atoms: _407  and  _408
REMARK  166  A    between atoms: _414  and  _416
REMARK  167  A    between atoms: _416  and  _417
REMARK  168  A    between atoms: _416  and  _419
REMARK  169  A    between atoms: _419  and  _420
REMARK  170  A    between atoms: _423  and  _425
REMARK  171  A    between atoms: _425  and  _426
REMARK  172  A    between atoms: _425  and  _428
REMARK  173  A    between atoms: _428  and  _429
REMARK  174  A    between atoms: _434  and  _436
REMARK  175  A    between atoms: _436  and  _437
REMARK  176  A    between atoms: _436  and  _439
REMARK  177  A    between atoms: _439  and  _440
REMARK  178  A    between atoms: _443  and  _445
REMARK  179  A    between atoms: _445  and  _446
REMARK  180  A    between atoms: _445  and  _448
REMARK  181  A    between atoms: _448  and  _449
REMARK  182  A    between atoms: _454  and  _455
REMARK  183  A    between atoms: _457  and  _459
REMARK  184  A    between atoms: _459  and  _460
REMARK  185  A    between atoms: _459  and  _462
REMARK  186  A    between atoms: _462  and  _463
REMARK  187  A    between atoms: _466  and  _468
REMARK  188  A    between atoms: _468  and  _469
REMARK  189  A    between atoms: _468  and  _471
REMARK  190  A    between atoms: _471  and  _472
REMARK  191  A    between atoms: _472  and  _473
REMARK  192  A    between atoms: _476  and  _478
REMARK  193  A    between atoms: _478  and  _479
REMARK  194  A    between atoms: _478  and  _481
REMARK  195  A    between atoms: _481  and  _482
REMARK  196  A    between atoms: _485  and  _487
REMARK  197  A    between atoms: _487  and  _488
REMARK  198  A    between atoms: _490  and  _492
REMARK  199  A    between atoms: _492  and  _493
REMARK  200  A    between atoms: _495  and  _497
REMARK  201  A    between atoms: _497  and  _498
REMARK  202  A    between atoms: _497  and  _500
REMARK  203  A    between atoms: _500  and  _501
REMARK  204  A    between atoms: _501  and  _502
REMARK  205  A    between atoms: _507  and  _509
REMARK  206  A    between atoms: _509  and  _510
REMARK  207  A    between atoms: _513  and  _515
REMARK  208  A    between atoms: _515  and  _516
REMARK  209  A    between atoms: _515  and  _518
REMARK  210  A    between atoms: _518  and  _519
REMARK  211  A    between atoms: _522  and  _524
REMARK  212  A    between atoms: _524  and  _525
REMARK  213  A    between atoms: _524  and  _527
REMARK  214  A    between atoms: _527  and  _528
REMARK  215  A    between atoms: _528  and  _529
REMARK  216  A    between atoms: _534  and  _536
REMARK  217  A    between atoms: _536  and  _537
REMARK  218  A    between atoms: _536  and  _539
REMARK  219  A    between atoms: _539  and  _540
REMARK  220  A    between atoms: _543  and  _545
REMARK  221  A    between atoms: _545  and  _546
REMARK  222  A    between atoms: _545  and  _548
REMARK  223  A    between atoms: _548  and  _549
REMARK  224  A    between atoms: _549  and  _550
REMARK  225  A    between atoms: _550  and  _551
REMARK                            x       y       z     vdW  Elec       q    Type
REMARK                         _______ _______ _______ _____ _____    ______ ____
ROOT
ATOM      1  O   HOH     1      10.098  27.908  54.531  0.00  0.00    +0.000 OA
ENDROOT
TORSDOF 0
