REMARK  Name = ../refined-set-2016/1n46/1n46_pocket.pdb
REMARK  251 active torsions:
REMARK  status: ('A' for Active; 'I' for Inactive)
REMARK    1  A    between atoms: _1  and  _3
REMARK    2  A    between atoms: _3  and  _4
REMARK    3  A    between atoms: _3  and  _6
REMARK    4  A    between atoms: _6  and  _7
REMARK    5  A    between atoms: _12  and  _14
REMARK    6  A    between atoms: _14  and  _15
REMARK    7  A    between atoms: _14  and  _17
REMARK    8  A    between atoms: _17  and  _18
REMARK    9  A    between atoms: _21  and  _23
REMARK   10  A    between atoms: _23  and  _24
REMARK   11  A    between atoms: _23  and  _26
REMARK   12  A    between atoms: _26  and  _27
REMARK   13  A    between atoms: _32  and  _34
REMARK   14  A    between atoms: _34  and  _35
REMARK   15  A    between atoms: _38  and  _40
REMARK   16  A    between atoms: _40  and  _41
REMARK   17  A    between atoms: _40  and  _43
REMARK   18  A    between atoms: _46  and  _48
REMARK   19  A    between atoms: _48  and  _49
REMARK   20  A    between atoms: _48  and  _51
REMARK   21  A    between atoms: _51  and  _52
REMARK   22  A    between atoms: _55  and  _57
REMARK   23  A    between atoms: _57  and  _58
REMARK   24  A    between atoms: _61  and  _63
REMARK   25  A    between atoms: _63  and  _64
REMARK   26  A    between atoms: _63  and  _66
REMARK   27  A    between atoms: _66  and  _67
REMARK   28  A    between atoms: _73  and  _75
REMARK   29  A    between atoms: _75  and  _76
REMARK   30  A    between atoms: _75  and  _78
REMARK   31  A    between atoms: _78  and  _79
REMARK   32  A    between atoms: _81  and  _83
REMARK   33  A    between atoms: _83  and  _84
REMARK   34  A    between atoms: _83  and  _86
REMARK   35  A    between atoms: _86  and  _87
REMARK   36  A    between atoms: _92  and  _94
REMARK   37  A    between atoms: _94  and  _95
REMARK   38  A    between atoms: _94  and  _97
REMARK   39  A    between atoms: _97  and  _98
REMARK   40  A    between atoms: _104  and  _106
REMARK   41  A    between atoms: _106  and  _107
REMARK   42  A    between atoms: _106  and  _109
REMARK   43  A    between atoms: _109  and  _110
REMARK   44  A    between atoms: _113  and  _115
REMARK   45  A    between atoms: _115  and  _116
REMARK   46  A    between atoms: _115  and  _118
REMARK   47  A    between atoms: _118  and  _119
REMARK   48  A    between atoms: _119  and  _120
REMARK   49  A    between atoms: _120  and  _121
REMARK   50  A    between atoms: _121  and  _122
REMARK   51  A    between atoms: _126  and  _128
REMARK   52  A    between atoms: _128  and  _129
REMARK   53  A    between atoms: _128  and  _131
REMARK   54  A    between atoms: _131  and  _132
REMARK   55  A    between atoms: _135  and  _137
REMARK   56  A    between atoms: _137  and  _138
REMARK   57  A    between atoms: _137  and  _140
REMARK   58  A    between atoms: _140  and  _141
REMARK   59  A    between atoms: _144  and  _146
REMARK   60  A    between atoms: _146  and  _147
REMARK   61  A    between atoms: _146  and  _149
REMARK   62  A    between atoms: _149  and  _150
REMARK   63  A    between atoms: _154  and  _155
REMARK   64  A    between atoms: _160  and  _162
REMARK   65  A    between atoms: _162  and  _163
REMARK   66  A    between atoms: _166  and  _168
REMARK   67  A    between atoms: _168  and  _169
REMARK   68  A    between atoms: _168  and  _171
REMARK   69  A    between atoms: _171  and  _172
REMARK   70  A    between atoms: _177  and  _178
REMARK   71  A    between atoms: _177  and  _180
REMARK   72  A    between atoms: _180  and  _181
REMARK   73  A    between atoms: _184  and  _186
REMARK   74  A    between atoms: _186  and  _187
REMARK   75  A    between atoms: _186  and  _189
REMARK   76  A    between atoms: _189  and  _190
REMARK   77  A    between atoms: _190  and  _191
REMARK   78  A    between atoms: _191  and  _192
REMARK   79  A    between atoms: _201  and  _203
REMARK   80  A    between atoms: _203  and  _204
REMARK   81  A    between atoms: _203  and  _206
REMARK   82  A    between atoms: _209  and  _211
REMARK   83  A    between atoms: _211  and  _212
REMARK   84  A    between atoms: _211  and  _214
REMARK   85  A    between atoms: _217  and  _219
REMARK   86  A    between atoms: _219  and  _220
REMARK   87  A    between atoms: _219  and  _222
REMARK   88  A    between atoms: _224  and  _226
REMARK   89  A    between atoms: _226  and  _227
REMARK   90  A    between atoms: _226  and  _229
REMARK   91  A    between atoms: _229  and  _230
REMARK   92  A    between atoms: _230  and  _231
REMARK   93  A    between atoms: _233  and  _235
REMARK   94  A    between atoms: _235  and  _236
REMARK   95  A    between atoms: _235  and  _238
REMARK   96  A    between atoms: _238  and  _239
REMARK   97  A    between atoms: _242  and  _244
REMARK   98  A    between atoms: _244  and  _245
REMARK   99  A    between atoms: _244  and  _247
REMARK  100  A    between atoms: _247  and  _248
REMARK  101  A    between atoms: _248  and  _249
REMARK  102  A    between atoms: _251  and  _253
REMARK  103  A    between atoms: _253  and  _254
REMARK  104  A    between atoms: _253  and  _256
REMARK  105  A    between atoms: _256  and  _257
REMARK  106  A    between atoms: _259  and  _261
REMARK  107  A    between atoms: _261  and  _262
REMARK  108  A    between atoms: _261  and  _264
REMARK  109  A    between atoms: _264  and  _265
REMARK  110  A    between atoms: _268  and  _270
REMARK  111  A    between atoms: _270  and  _271
REMARK  112  A    between atoms: _270  and  _273
REMARK  113  A    between atoms: _273  and  _274
REMARK  114  A    between atoms: _274  and  _275
REMARK  115  A    between atoms: _275  and  _276
REMARK  116  A    between atoms: _285  and  _287
REMARK  117  A    between atoms: _287  and  _288
REMARK  118  A    between atoms: _291  and  _293
REMARK  119  A    between atoms: _293  and  _294
REMARK  120  A    between atoms: _297  and  _299
REMARK  121  A    between atoms: _299  and  _300
REMARK  122  A    between atoms: _299  and  _302
REMARK  123  A    between atoms: _305  and  _307
REMARK  124  A    between atoms: _307  and  _308
REMARK  125  A    between atoms: _307  and  _310
REMARK  126  A    between atoms: _310  and  _311
REMARK  127  A    between atoms: _311  and  _312
REMARK  128  A    between atoms: _312  and  _313
REMARK  129  A    between atoms: _322  and  _324
REMARK  130  A    between atoms: _324  and  _325
REMARK  131  A    between atoms: _324  and  _327
REMARK  132  A    between atoms: _327  and  _328
REMARK  133  A    between atoms: _331  and  _333
REMARK  134  A    between atoms: _333  and  _334
REMARK  135  A    between atoms: _333  and  _336
REMARK  136  A    between atoms: _336  and  _337
REMARK  137  A    between atoms: _340  and  _342
REMARK  138  A    between atoms: _342  and  _343
REMARK  139  A    between atoms: _342  and  _345
REMARK  140  A    between atoms: _345  and  _346
REMARK  141  A    between atoms: _349  and  _351
REMARK  142  A    between atoms: _351  and  _352
REMARK  143  A    between atoms: _351  and  _354
REMARK  144  A    between atoms: _354  and  _355
REMARK  145  A    between atoms: _360  and  _362
REMARK  146  A    between atoms: _362  and  _363
REMARK  147  A    between atoms: _365  and  _367
REMARK  148  A    between atoms: _367  and  _368
REMARK  149  A    between atoms: _367  and  _370
REMARK  150  A    between atoms: _370  and  _371
REMARK  151  A    between atoms: _371  and  _372
REMARK  152  A    between atoms: _375  and  _377
REMARK  153  A    between atoms: _377  and  _378
REMARK  154  A    between atoms: _377  and  _380
REMARK  155  A    between atoms: _380  and  _381
REMARK  156  A    between atoms: _381  and  _382
REMARK  157  A    between atoms: _384  and  _386
REMARK  158  A    between atoms: _386  and  _387
REMARK  159  A    between atoms: _386  and  _389
REMARK  160  A    between atoms: _392  and  _394
REMARK  161  A    between atoms: _394  and  _395
REMARK  162  A    between atoms: _394  and  _397
REMARK  163  A    between atoms: _397  and  _398
REMARK  164  A    between atoms: _398  and  _399
REMARK  165  A    between atoms: _404  and  _406
REMARK  166  A    between atoms: _406  and  _407
REMARK  167  A    between atoms: _406  and  _409
REMARK  168  A    between atoms: _409  and  _410
REMARK  169  A    between atoms: _413  and  _415
REMARK  170  A    between atoms: _415  and  _416
REMARK  171  A    between atoms: _415  and  _418
REMARK  172  A    between atoms: _418  and  _419
REMARK  173  A    between atoms: _419  and  _420
REMARK  174  A    between atoms: _420  and  _421
REMARK  175  A    between atoms: _421  and  _422
REMARK  176  A    between atoms: _426  and  _428
REMARK  177  A    between atoms: _428  and  _429
REMARK  178  A    between atoms: _428  and  _431
REMARK  179  A    between atoms: _431  and  _432
REMARK  180  A    between atoms: _437  and  _439
REMARK  181  A    between atoms: _439  and  _440
REMARK  182  A    between atoms: _442  and  _444
REMARK  183  A    between atoms: _444  and  _445
REMARK  184  A    between atoms: _447  and  _449
REMARK  185  A    between atoms: _449  and  _450
REMARK  186  A    between atoms: _449  and  _452
REMARK  187  A    between atoms: _452  and  _453
REMARK  188  A    between atoms: _456  and  _458
REMARK  189  A    between atoms: _458  and  _459
REMARK  190  A    between atoms: _461  and  _463
REMARK  191  A    between atoms: _463  and  _464
REMARK  192  A    between atoms: _463  and  _466
REMARK  193  A    between atoms: _469  and  _471
REMARK  194  A    between atoms: _471  and  _472
REMARK  195  A    between atoms: _471  and  _474
REMARK  196  A    between atoms: _474  and  _475
REMARK  197  A    between atoms: _477  and  _479
REMARK  198  A    between atoms: _479  and  _480
REMARK  199  A    between atoms: _479  and  _482
REMARK  200  A    between atoms: _482  and  _483
REMARK  201  A    between atoms: _486  and  _488
REMARK  202  A    between atoms: _488  and  _489
REMARK  203  A    between atoms: _488  and  _491
REMARK  204  A    between atoms: _491  and  _492
REMARK  205  A    between atoms: _498  and  _500
REMARK  206  A    between atoms: _500  and  _501
REMARK  207  A    between atoms: _500  and  _503
REMARK  208  A    between atoms: _503  and  _504
REMARK  209  A    between atoms: _504  and  _505
REMARK  210  A    between atoms: _510  and  _512
REMARK  211  A    between atoms: _512  and  _513
REMARK  212  A    between atoms: _512  and  _515
REMARK  213  A    between atoms: _515  and  _516
REMARK  214  A    between atoms: _519  and  _521
REMARK  215  A    between atoms: _521  and  _522
REMARK  216  A    between atoms: _521  and  _524
REMARK  217  A    between atoms: _524  and  _525
REMARK  218  A    between atoms: _530  and  _532
REMARK  219  A    between atoms: _532  and  _533
REMARK  220  A    between atoms: _536  and  _538
REMARK  221  A    between atoms: _538  and  _539
REMARK  222  A    between atoms: _538  and  _541
REMARK  223  A    between atoms: _541  and  _542
REMARK  224  A    between atoms: _542  and  _543
REMARK  225  A    between atoms: _543  and  _544
REMARK  226  A    between atoms: _553  and  _555
REMARK  227  A    between atoms: _555  and  _556
REMARK  228  A    between atoms: _555  and  _558
REMARK  229  A    between atoms: _558  and  _559
REMARK  230  A    between atoms: _565  and  _567
REMARK  231  A    between atoms: _567  and  _568
REMARK  232  A    between atoms: _567  and  _570
REMARK  233  A    between atoms: _570  and  _571
REMARK  234  A    between atoms: _571  and  _572
REMARK  235  A    between atoms: _574  and  _576
REMARK  236  A    between atoms: _576  and  _577
REMARK  237  A    between atoms: _576  and  _579
REMARK  238  A    between atoms: _579  and  _580
REMARK  239  A    between atoms: _583  and  _585
REMARK  240  A    between atoms: _585  and  _586
REMARK  241  A    between atoms: _585  and  _588
REMARK  242  A    between atoms: _588  and  _589
REMARK  243  A    between atoms: _596  and  _597
REMARK  244  A    between atoms: _602  and  _604
REMARK  245  A    between atoms: _604  and  _605
REMARK  246  A    between atoms: _604  and  _607
REMARK  247  A    between atoms: _607  and  _608
REMARK  248  A    between atoms: _614  and  _616
REMARK  249  A    between atoms: _616  and  _617
REMARK  250  A    between atoms: _616  and  _619
REMARK  251  A    between atoms: _619  and  _620
REMARK                            x       y       z     vdW  Elec       q    Type
REMARK                         _______ _______ _______ _____ _____    ______ ____
ROOT
ATOM      1  CB  HIS A   1      14.813  -6.813   9.649  0.00  0.00    +0.072 C 
ENDROOT
BRANCH   1   2
ATOM      2  CG  HIS A   1      14.143  -5.499   9.400  0.00  0.00    +0.082 A 
ATOM      3  CD2 HIS A   1      12.903  -5.054   9.728  0.00  0.00    +0.115 A 
ATOM      4  NE2 HIS A   1      12.782  -3.781   9.246  0.00  0.00    -0.221 NA
ATOM      5  CE1 HIS A   1      13.912  -3.451   8.642  0.00  0.00    +0.199 A 
ATOM      6  ND1 HIS A   1      14.767  -4.457   8.755  0.00  0.00    -0.227 NA
ENDBRANCH   1   2
BRANCH   1   7
ATOM      7  CA  HIS A   1      16.038  -6.724  10.540  0.00  0.00    +0.139 C 
BRANCH   7   8
ATOM      8  N   HIS A   1      16.481  -8.041  10.960  0.00  0.00    -0.239 NA
ATOM      9  H   HIS A   1      15.831  -8.844  10.841  0.00  0.00    +0.142 HD
ENDBRANCH   7   8
BRANCH   7  10
ATOM     10  C   HIS A   1      15.779  -5.777  11.728  0.00  0.00    +0.224 C 
ATOM     11  O   HIS A   1      16.337  -4.711  11.741  0.00  0.00    -0.287 OA
ENDBRANCH   7  10
ENDBRANCH   1   7
TORSDOF 4
REMARK  Name = ../refined-set-2016/1n46/1n46_pocket.pdb
REMARK  251 active torsions:
REMARK  status: ('A' for Active; 'I' for Inactive)
REMARK    1  A    between atoms: _1  and  _3
REMARK    2  A    between atoms: _3  and  _4
REMARK    3  A    between atoms: _3  and  _6
REMARK    4  A    between atoms: _6  and  _7
REMARK    5  A    between atoms: _12  and  _14
REMARK    6  A    between atoms: _14  and  _15
REMARK    7  A    between atoms: _14  and  _17
REMARK    8  A    between atoms: _17  and  _18
REMARK    9  A    between atoms: _21  and  _23
REMARK   10  A    between atoms: _23  and  _24
REMARK   11  A    between atoms: _23  and  _26
REMARK   12  A    between atoms: _26  and  _27
REMARK   13  A    between atoms: _32  and  _34
REMARK   14  A    between atoms: _34  and  _35
REMARK   15  A    between atoms: _38  and  _40
REMARK   16  A    between atoms: _40  and  _41
REMARK   17  A    between atoms: _40  and  _43
REMARK   18  A    between atoms: _46  and  _48
REMARK   19  A    between atoms: _48  and  _49
REMARK   20  A    between atoms: _48  and  _51
REMARK   21  A    between atoms: _51  and  _52
REMARK   22  A    between atoms: _55  and  _57
REMARK   23  A    between atoms: _57  and  _58
REMARK   24  A    between atoms: _61  and  _63
REMARK   25  A    between atoms: _63  and  _64
REMARK   26  A    between atoms: _63  and  _66
REMARK   27  A    between atoms: _66  and  _67
REMARK   28  A    between atoms: _73  and  _75
REMARK   29  A    between atoms: _75  and  _76
REMARK   30  A    between atoms: _75  and  _78
REMARK   31  A    between atoms: _78  and  _79
REMARK   32  A    between atoms: _81  and  _83
REMARK   33  A    between atoms: _83  and  _84
REMARK   34  A    between atoms: _83  and  _86
REMARK   35  A    between atoms: _86  and  _87
REMARK   36  A    between atoms: _92  and  _94
REMARK   37  A    between atoms: _94  and  _95
REMARK   38  A    between atoms: _94  and  _97
REMARK   39  A    between atoms: _97  and  _98
REMARK   40  A    between atoms: _104  and  _106
REMARK   41  A    between atoms: _106  and  _107
REMARK   42  A    between atoms: _106  and  _109
REMARK   43  A    between atoms: _109  and  _110
REMARK   44  A    between atoms: _113  and  _115
REMARK   45  A    between atoms: _115  and  _116
REMARK   46  A    between atoms: _115  and  _118
REMARK   47  A    between atoms: _118  and  _119
REMARK   48  A    between atoms: _119  and  _120
REMARK   49  A    between atoms: _120  and  _121
REMARK   50  A    between atoms: _121  and  _122
REMARK   51  A    between atoms: _126  and  _128
REMARK   52  A    between atoms: _128  and  _129
REMARK   53  A    between atoms: _128  and  _131
REMARK   54  A    between atoms: _131  and  _132
REMARK   55  A    between atoms: _135  and  _137
REMARK   56  A    between atoms: _137  and  _138
REMARK   57  A    between atoms: _137  and  _140
REMARK   58  A    between atoms: _140  and  _141
REMARK   59  A    between atoms: _144  and  _146
REMARK   60  A    between atoms: _146  and  _147
REMARK   61  A    between atoms: _146  and  _149
REMARK   62  A    between atoms: _149  and  _150
REMARK   63  A    between atoms: _154  and  _155
REMARK   64  A    between atoms: _160  and  _162
REMARK   65  A    between atoms: _162  and  _163
REMARK   66  A    between atoms: _166  and  _168
REMARK   67  A    between atoms: _168  and  _169
REMARK   68  A    between atoms: _168  and  _171
REMARK   69  A    between atoms: _171  and  _172
REMARK   70  A    between atoms: _177  and  _178
REMARK   71  A    between atoms: _177  and  _180
REMARK   72  A    between atoms: _180  and  _181
REMARK   73  A    between atoms: _184  and  _186
REMARK   74  A    between atoms: _186  and  _187
REMARK   75  A    between atoms: _186  and  _189
REMARK   76  A    between atoms: _189  and  _190
REMARK   77  A    between atoms: _190  and  _191
REMARK   78  A    between atoms: _191  and  _192
REMARK   79  A    between atoms: _201  and  _203
REMARK   80  A    between atoms: _203  and  _204
REMARK   81  A    between atoms: _203  and  _206
REMARK   82  A    between atoms: _209  and  _211
REMARK   83  A    between atoms: _211  and  _212
REMARK   84  A    between atoms: _211  and  _214
REMARK   85  A    between atoms: _217  and  _219
REMARK   86  A    between atoms: _219  and  _220
REMARK   87  A    between atoms: _219  and  _222
REMARK   88  A    between atoms: _224  and  _226
REMARK   89  A    between atoms: _226  and  _227
REMARK   90  A    between atoms: _226  and  _229
REMARK   91  A    between atoms: _229  and  _230
REMARK   92  A    between atoms: _230  and  _231
REMARK   93  A    between atoms: _233  and  _235
REMARK   94  A    between atoms: _235  and  _236
REMARK   95  A    between atoms: _235  and  _238
REMARK   96  A    between atoms: _238  and  _239
REMARK   97  A    between atoms: _242  and  _244
REMARK   98  A    between atoms: _244  and  _245
REMARK   99  A    between atoms: _244  and  _247
REMARK  100  A    between atoms: _247  and  _248
REMARK  101  A    between atoms: _248  and  _249
REMARK  102  A    between atoms: _251  and  _253
REMARK  103  A    between atoms: _253  and  _254
REMARK  104  A    between atoms: _253  and  _256
REMARK  105  A    between atoms: _256  and  _257
REMARK  106  A    between atoms: _259  and  _261
REMARK  107  A    between atoms: _261  and  _262
REMARK  108  A    between atoms: _261  and  _264
REMARK  109  A    between atoms: _264  and  _265
REMARK  110  A    between atoms: _268  and  _270
REMARK  111  A    between atoms: _270  and  _271
REMARK  112  A    between atoms: _270  and  _273
REMARK  113  A    between atoms: _273  and  _274
REMARK  114  A    between atoms: _274  and  _275
REMARK  115  A    between atoms: _275  and  _276
REMARK  116  A    between atoms: _285  and  _287
REMARK  117  A    between atoms: _287  and  _288
REMARK  118  A    between atoms: _291  and  _293
REMARK  119  A    between atoms: _293  and  _294
REMARK  120  A    between atoms: _297  and  _299
REMARK  121  A    between atoms: _299  and  _300
REMARK  122  A    between atoms: _299  and  _302
REMARK  123  A    between atoms: _305  and  _307
REMARK  124  A    between atoms: _307  and  _308
REMARK  125  A    between atoms: _307  and  _310
REMARK  126  A    between atoms: _310  and  _311
REMARK  127  A    between atoms: _311  and  _312
REMARK  128  A    between atoms: _312  and  _313
REMARK  129  A    between atoms: _322  and  _324
REMARK  130  A    between atoms: _324  and  _325
REMARK  131  A    between atoms: _324  and  _327
REMARK  132  A    between atoms: _327  and  _328
REMARK  133  A    between atoms: _331  and  _333
REMARK  134  A    between atoms: _333  and  _334
REMARK  135  A    between atoms: _333  and  _336
REMARK  136  A    between atoms: _336  and  _337
REMARK  137  A    between atoms: _340  and  _342
REMARK  138  A    between atoms: _342  and  _343
REMARK  139  A    between atoms: _342  and  _345
REMARK  140  A    between atoms: _345  and  _346
REMARK  141  A    between atoms: _349  and  _351
REMARK  142  A    between atoms: _351  and  _352
REMARK  143  A    between atoms: _351  and  _354
REMARK  144  A    between atoms: _354  and  _355
REMARK  145  A    between atoms: _360  and  _362
REMARK  146  A    between atoms: _362  and  _363
REMARK  147  A    between atoms: _365  and  _367
REMARK  148  A    between atoms: _367  and  _368
REMARK  149  A    between atoms: _367  and  _370
REMARK  150  A    between atoms: _370  and  _371
REMARK  151  A    between atoms: _371  and  _372
REMARK  152  A    between atoms: _375  and  _377
REMARK  153  A    between atoms: _377  and  _378
REMARK  154  A    between atoms: _377  and  _380
REMARK  155  A    between atoms: _380  and  _381
REMARK  156  A    between atoms: _381  and  _382
REMARK  157  A    between atoms: _384  and  _386
REMARK  158  A    between atoms: _386  and  _387
REMARK  159  A    between atoms: _386  and  _389
REMARK  160  A    between atoms: _392  and  _394
REMARK  161  A    between atoms: _394  and  _395
REMARK  162  A    between atoms: _394  and  _397
REMARK  163  A    between atoms: _397  and  _398
REMARK  164  A    between atoms: _398  and  _399
REMARK  165  A    between atoms: _404  and  _406
REMARK  166  A    between atoms: _406  and  _407
REMARK  167  A    between atoms: _406  and  _409
REMARK  168  A    between atoms: _409  and  _410
REMARK  169  A    between atoms: _413  and  _415
REMARK  170  A    between atoms: _415  and  _416
REMARK  171  A    between atoms: _415  and  _418
REMARK  172  A    between atoms: _418  and  _419
REMARK  173  A    between atoms: _419  and  _420
REMARK  174  A    between atoms: _420  and  _421
REMARK  175  A    between atoms: _421  and  _422
REMARK  176  A    between atoms: _426  and  _428
REMARK  177  A    between atoms: _428  and  _429
REMARK  178  A    between atoms: _428  and  _431
REMARK  179  A    between atoms: _431  and  _432
REMARK  180  A    between atoms: _437  and  _439
REMARK  181  A    between atoms: _439  and  _440
REMARK  182  A    between atoms: _442  and  _444
REMARK  183  A    between atoms: _444  and  _445
REMARK  184  A    between atoms: _447  and  _449
REMARK  185  A    between atoms: _449  and  _450
REMARK  186  A    between atoms: _449  and  _452
REMARK  187  A    between atoms: _452  and  _453
REMARK  188  A    between atoms: _456  and  _458
REMARK  189  A    between atoms: _458  and  _459
REMARK  190  A    between atoms: _461  and  _463
REMARK  191  A    between atoms: _463  and  _464
REMARK  192  A    between atoms: _463  and  _466
REMARK  193  A    between atoms: _469  and  _471
REMARK  194  A    between atoms: _471  and  _472
REMARK  195  A    between atoms: _471  and  _474
REMARK  196  A    between atoms: _474  and  _475
REMARK  197  A    between atoms: _477  and  _479
REMARK  198  A    between atoms: _479  and  _480
REMARK  199  A    between atoms: _479  and  _482
REMARK  200  A    between atoms: _482  and  _483
REMARK  201  A    between atoms: _486  and  _488
REMARK  202  A    between atoms: _488  and  _489
REMARK  203  A    between atoms: _488  and  _491
REMARK  204  A    between atoms: _491  and  _492
REMARK  205  A    between atoms: _498  and  _500
REMARK  206  A    between atoms: _500  and  _501
REMARK  207  A    between atoms: _500  and  _503
REMARK  208  A    between atoms: _503  and  _504
REMARK  209  A    between atoms: _504  and  _505
REMARK  210  A    between atoms: _510  and  _512
REMARK  211  A    between atoms: _512  and  _513
REMARK  212  A    between atoms: _512  and  _515
REMARK  213  A    between atoms: _515  and  _516
REMARK  214  A    between atoms: _519  and  _521
REMARK  215  A    between atoms: _521  and  _522
REMARK  216  A    between atoms: _521  and  _524
REMARK  217  A    between atoms: _524  and  _525
REMARK  218  A    between atoms: _530  and  _532
REMARK  219  A    between atoms: _532  and  _533
REMARK  220  A    between atoms: _536  and  _538
REMARK  221  A    between atoms: _538  and  _539
REMARK  222  A    between atoms: _538  and  _541
REMARK  223  A    between atoms: _541  and  _542
REMARK  224  A    between atoms: _542  and  _543
REMARK  225  A    between atoms: _543  and  _544
REMARK  226  A    between atoms: _553  and  _555
REMARK  227  A    between atoms: _555  and  _556
REMARK  228  A    between atoms: _555  and  _558
REMARK  229  A    between atoms: _558  and  _559
REMARK  230  A    between atoms: _565  and  _567
REMARK  231  A    between atoms: _567  and  _568
REMARK  232  A    between atoms: _567  and  _570
REMARK  233  A    between atoms: _570  and  _571
REMARK  234  A    between atoms: _571  and  _572
REMARK  235  A    between atoms: _574  and  _576
REMARK  236  A    between atoms: _576  and  _577
REMARK  237  A    between atoms: _576  and  _579
REMARK  238  A    between atoms: _579  and  _580
REMARK  239  A    between atoms: _583  and  _585
REMARK  240  A    between atoms: _585  and  _586
REMARK  241  A    between atoms: _585  and  _588
REMARK  242  A    between atoms: _588  and  _589
REMARK  243  A    between atoms: _596  and  _597
REMARK  244  A    between atoms: _602  and  _604
REMARK  245  A    between atoms: _604  and  _605
REMARK  246  A    between atoms: _604  and  _607
REMARK  247  A    between atoms: _607  and  _608
REMARK  248  A    between atoms: _614  and  _616
REMARK  249  A    between atoms: _616  and  _617
REMARK  250  A    between atoms: _616  and  _619
REMARK  251  A    between atoms: _619  and  _620
REMARK                            x       y       z     vdW  Elec       q    Type
REMARK                         _______ _______ _______ _____ _____    ______ ____
ROOT
ATOM      1  CA  ASN A   2      16.789  -0.906  12.377  0.00  0.00    +0.158 C 
ENDROOT
BRANCH   1   3
ATOM      2  C   THR A   1      18.783  -2.261  12.223  0.00  0.00    +0.241 C 
ATOM      3  N   ASN A   2      17.658  -1.968  12.871  0.00  0.00    -0.297 N 
ATOM      4  H   ASN A   2      17.399  -2.496  13.729  0.00  0.00    +0.150 HD
ATOM      5  O   THR A   1      19.180  -1.628  11.245  0.00  0.00    -0.274 OA
BRANCH   2   6
ATOM      6  CA  THR A   1      19.611  -3.403  12.747  0.00  0.00    +0.172 C 
BRANCH   6   7
ATOM      7  N   THR A   1      18.782  -4.317  13.518  0.00  0.00    -0.236 NA
ATOM      8  H   THR A   1      17.999  -4.808  13.041  0.00  0.00    +0.142 HD
ENDBRANCH   6   7
BRANCH   6   9
ATOM      9  CB  THR A   1      20.351  -4.161  11.593  0.00  0.00    +0.135 C 
ATOM     10  CG2 THR A   1      21.257  -5.257  12.222  0.00  0.00    +0.034 C 
BRANCH   9  11
ATOM     11  OG1 THR A   1      19.427  -4.825  10.691  0.00  0.00    -0.383 OA
ATOM     12  HG1 THR A   1      18.890  -5.484  11.197  0.00  0.00    +0.210 HD
ENDBRANCH   9  11
ENDBRANCH   6   9
ENDBRANCH   2   6
ENDBRANCH   1   3
BRANCH   1  13
ATOM     13  C   ASN A   2      16.388   0.060  13.503  0.00  0.00    +0.241 C 
ATOM     14  N   ALA A   3      17.353   0.474  14.298  0.00  0.00    -0.298 N 
ATOM     15  H   ALA A   3      18.309   0.106  14.120  0.00  0.00    +0.150 HD
ATOM     16  O   ASN A   2      15.261   0.385  13.657  0.00  0.00    -0.273 OA
BRANCH  14  17
ATOM     17  CA  ALA A   3      17.185   1.427  15.432  0.00  0.00    +0.137 C 
ATOM     18  CB  ALA A   3      18.387   2.423  15.457  0.00  0.00    +0.030 C 
BRANCH  17  19
ATOM     19  C   ALA A   3      15.857   2.246  15.548  0.00  0.00    +0.227 C 
ATOM     20  O   ALA A   3      15.537   3.076  14.665  0.00  0.00    -0.286 OA
ENDBRANCH  17  19
ENDBRANCH  14  17
ENDBRANCH   1  13
BRANCH   1  21
ATOM     21  CB  ASN A   2      15.572  -1.470  11.597  0.00  0.00    +0.114 C 
BRANCH  21  22
ATOM     22  CG  ASN A   2      14.838  -0.364  10.758  0.00  0.00    +0.222 C 
ATOM     23  ND2 ASN A   2      13.508  -0.417  10.679  0.00  0.00    -0.329 N 
ATOM     24 HD21 ASN A   2      12.991  -1.196  11.134  0.00  0.00    +0.145 HD
ATOM     25 HD22 ASN A   2      12.988   0.321  10.162  0.00  0.00    +0.145 HD
ATOM     26  OD1 ASN A   2      15.474   0.541  10.232  0.00  0.00    -0.275 OA
ENDBRANCH  21  22
ENDBRANCH   1  21
TORSDOF 10
REMARK  Name = ../refined-set-2016/1n46/1n46_pocket.pdb
REMARK  251 active torsions:
REMARK  status: ('A' for Active; 'I' for Inactive)
REMARK    1  A    between atoms: _1  and  _3
REMARK    2  A    between atoms: _3  and  _4
REMARK    3  A    between atoms: _3  and  _6
REMARK    4  A    between atoms: _6  and  _7
REMARK    5  A    between atoms: _12  and  _14
REMARK    6  A    between atoms: _14  and  _15
REMARK    7  A    between atoms: _14  and  _17
REMARK    8  A    between atoms: _17  and  _18
REMARK    9  A    between atoms: _21  and  _23
REMARK   10  A    between atoms: _23  and  _24
REMARK   11  A    between atoms: _23  and  _26
REMARK   12  A    between atoms: _26  and  _27
REMARK   13  A    between atoms: _32  and  _34
REMARK   14  A    between atoms: _34  and  _35
REMARK   15  A    between atoms: _38  and  _40
REMARK   16  A    between atoms: _40  and  _41
REMARK   17  A    between atoms: _40  and  _43
REMARK   18  A    between atoms: _46  and  _48
REMARK   19  A    between atoms: _48  and  _49
REMARK   20  A    between atoms: _48  and  _51
REMARK   21  A    between atoms: _51  and  _52
REMARK   22  A    between atoms: _55  and  _57
REMARK   23  A    between atoms: _57  and  _58
REMARK   24  A    between atoms: _61  and  _63
REMARK   25  A    between atoms: _63  and  _64
REMARK   26  A    between atoms: _63  and  _66
REMARK   27  A    between atoms: _66  and  _67
REMARK   28  A    between atoms: _73  and  _75
REMARK   29  A    between atoms: _75  and  _76
REMARK   30  A    between atoms: _75  and  _78
REMARK   31  A    between atoms: _78  and  _79
REMARK   32  A    between atoms: _81  and  _83
REMARK   33  A    between atoms: _83  and  _84
REMARK   34  A    between atoms: _83  and  _86
REMARK   35  A    between atoms: _86  and  _87
REMARK   36  A    between atoms: _92  and  _94
REMARK   37  A    between atoms: _94  and  _95
REMARK   38  A    between atoms: _94  and  _97
REMARK   39  A    between atoms: _97  and  _98
REMARK   40  A    between atoms: _104  and  _106
REMARK   41  A    between atoms: _106  and  _107
REMARK   42  A    between atoms: _106  and  _109
REMARK   43  A    between atoms: _109  and  _110
REMARK   44  A    between atoms: _113  and  _115
REMARK   45  A    between atoms: _115  and  _116
REMARK   46  A    between atoms: _115  and  _118
REMARK   47  A    between atoms: _118  and  _119
REMARK   48  A    between atoms: _119  and  _120
REMARK   49  A    between atoms: _120  and  _121
REMARK   50  A    between atoms: _121  and  _122
REMARK   51  A    between atoms: _126  and  _128
REMARK   52  A    between atoms: _128  and  _129
REMARK   53  A    between atoms: _128  and  _131
REMARK   54  A    between atoms: _131  and  _132
REMARK   55  A    between atoms: _135  and  _137
REMARK   56  A    between atoms: _137  and  _138
REMARK   57  A    between atoms: _137  and  _140
REMARK   58  A    between atoms: _140  and  _141
REMARK   59  A    between atoms: _144  and  _146
REMARK   60  A    between atoms: _146  and  _147
REMARK   61  A    between atoms: _146  and  _149
REMARK   62  A    between atoms: _149  and  _150
REMARK   63  A    between atoms: _154  and  _155
REMARK   64  A    between atoms: _160  and  _162
REMARK   65  A    between atoms: _162  and  _163
REMARK   66  A    between atoms: _166  and  _168
REMARK   67  A    between atoms: _168  and  _169
REMARK   68  A    between atoms: _168  and  _171
REMARK   69  A    between atoms: _171  and  _172
REMARK   70  A    between atoms: _177  and  _178
REMARK   71  A    between atoms: _177  and  _180
REMARK   72  A    between atoms: _180  and  _181
REMARK   73  A    between atoms: _184  and  _186
REMARK   74  A    between atoms: _186  and  _187
REMARK   75  A    between atoms: _186  and  _189
REMARK   76  A    between atoms: _189  and  _190
REMARK   77  A    between atoms: _190  and  _191
REMARK   78  A    between atoms: _191  and  _192
REMARK   79  A    between atoms: _201  and  _203
REMARK   80  A    between atoms: _203  and  _204
REMARK   81  A    between atoms: _203  and  _206
REMARK   82  A    between atoms: _209  and  _211
REMARK   83  A    between atoms: _211  and  _212
REMARK   84  A    between atoms: _211  and  _214
REMARK   85  A    between atoms: _217  and  _219
REMARK   86  A    between atoms: _219  and  _220
REMARK   87  A    between atoms: _219  and  _222
REMARK   88  A    between atoms: _224  and  _226
REMARK   89  A    between atoms: _226  and  _227
REMARK   90  A    between atoms: _226  and  _229
REMARK   91  A    between atoms: _229  and  _230
REMARK   92  A    between atoms: _230  and  _231
REMARK   93  A    between atoms: _233  and  _235
REMARK   94  A    between atoms: _235  and  _236
REMARK   95  A    between atoms: _235  and  _238
REMARK   96  A    between atoms: _238  and  _239
REMARK   97  A    between atoms: _242  and  _244
REMARK   98  A    between atoms: _244  and  _245
REMARK   99  A    between atoms: _244  and  _247
REMARK  100  A    between atoms: _247  and  _248
REMARK  101  A    between atoms: _248  and  _249
REMARK  102  A    between atoms: _251  and  _253
REMARK  103  A    between atoms: _253  and  _254
REMARK  104  A    between atoms: _253  and  _256
REMARK  105  A    between atoms: _256  and  _257
REMARK  106  A    between atoms: _259  and  _261
REMARK  107  A    between atoms: _261  and  _262
REMARK  108  A    between atoms: _261  and  _264
REMARK  109  A    between atoms: _264  and  _265
REMARK  110  A    between atoms: _268  and  _270
REMARK  111  A    between atoms: _270  and  _271
REMARK  112  A    between atoms: _270  and  _273
REMARK  113  A    between atoms: _273  and  _274
REMARK  114  A    between atoms: _274  and  _275
REMARK  115  A    between atoms: _275  and  _276
REMARK  116  A    between atoms: _285  and  _287
REMARK  117  A    between atoms: _287  and  _288
REMARK  118  A    between atoms: _291  and  _293
REMARK  119  A    between atoms: _293  and  _294
REMARK  120  A    between atoms: _297  and  _299
REMARK  121  A    between atoms: _299  and  _300
REMARK  122  A    between atoms: _299  and  _302
REMARK  123  A    between atoms: _305  and  _307
REMARK  124  A    between atoms: _307  and  _308
REMARK  125  A    between atoms: _307  and  _310
REMARK  126  A    between atoms: _310  and  _311
REMARK  127  A    between atoms: _311  and  _312
REMARK  128  A    between atoms: _312  and  _313
REMARK  129  A    between atoms: _322  and  _324
REMARK  130  A    between atoms: _324  and  _325
REMARK  131  A    between atoms: _324  and  _327
REMARK  132  A    between atoms: _327  and  _328
REMARK  133  A    between atoms: _331  and  _333
REMARK  134  A    between atoms: _333  and  _334
REMARK  135  A    between atoms: _333  and  _336
REMARK  136  A    between atoms: _336  and  _337
REMARK  137  A    between atoms: _340  and  _342
REMARK  138  A    between atoms: _342  and  _343
REMARK  139  A    between atoms: _342  and  _345
REMARK  140  A    between atoms: _345  and  _346
REMARK  141  A    between atoms: _349  and  _351
REMARK  142  A    between atoms: _351  and  _352
REMARK  143  A    between atoms: _351  and  _354
REMARK  144  A    between atoms: _354  and  _355
REMARK  145  A    between atoms: _360  and  _362
REMARK  146  A    between atoms: _362  and  _363
REMARK  147  A    between atoms: _365  and  _367
REMARK  148  A    between atoms: _367  and  _368
REMARK  149  A    between atoms: _367  and  _370
REMARK  150  A    between atoms: _370  and  _371
REMARK  151  A    between atoms: _371  and  _372
REMARK  152  A    between atoms: _375  and  _377
REMARK  153  A    between atoms: _377  and  _378
REMARK  154  A    between atoms: _377  and  _380
REMARK  155  A    between atoms: _380  and  _381
REMARK  156  A    between atoms: _381  and  _382
REMARK  157  A    between atoms: _384  and  _386
REMARK  158  A    between atoms: _386  and  _387
REMARK  159  A    between atoms: _386  and  _389
REMARK  160  A    between atoms: _392  and  _394
REMARK  161  A    between atoms: _394  and  _395
REMARK  162  A    between atoms: _394  and  _397
REMARK  163  A    between atoms: _397  and  _398
REMARK  164  A    between atoms: _398  and  _399
REMARK  165  A    between atoms: _404  and  _406
REMARK  166  A    between atoms: _406  and  _407
REMARK  167  A    between atoms: _406  and  _409
REMARK  168  A    between atoms: _409  and  _410
REMARK  169  A    between atoms: _413  and  _415
REMARK  170  A    between atoms: _415  and  _416
REMARK  171  A    between atoms: _415  and  _418
REMARK  172  A    between atoms: _418  and  _419
REMARK  173  A    between atoms: _419  and  _420
REMARK  174  A    between atoms: _420  and  _421
REMARK  175  A    between atoms: _421  and  _422
REMARK  176  A    between atoms: _426  and  _428
REMARK  177  A    between atoms: _428  and  _429
REMARK  178  A    between atoms: _428  and  _431
REMARK  179  A    between atoms: _431  and  _432
REMARK  180  A    between atoms: _437  and  _439
REMARK  181  A    between atoms: _439  and  _440
REMARK  182  A    between atoms: _442  and  _444
REMARK  183  A    between atoms: _444  and  _445
REMARK  184  A    between atoms: _447  and  _449
REMARK  185  A    between atoms: _449  and  _450
REMARK  186  A    between atoms: _449  and  _452
REMARK  187  A    between atoms: _452  and  _453
REMARK  188  A    between atoms: _456  and  _458
REMARK  189  A    between atoms: _458  and  _459
REMARK  190  A    between atoms: _461  and  _463
REMARK  191  A    between atoms: _463  and  _464
REMARK  192  A    between atoms: _463  and  _466
REMARK  193  A    between atoms: _469  and  _471
REMARK  194  A    between atoms: _471  and  _472
REMARK  195  A    between atoms: _471  and  _474
REMARK  196  A    between atoms: _474  and  _475
REMARK  197  A    between atoms: _477  and  _479
REMARK  198  A    between atoms: _479  and  _480
REMARK  199  A    between atoms: _479  and  _482
REMARK  200  A    between atoms: _482  and  _483
REMARK  201  A    between atoms: _486  and  _488
REMARK  202  A    between atoms: _488  and  _489
REMARK  203  A    between atoms: _488  and  _491
REMARK  204  A    between atoms: _491  and  _492
REMARK  205  A    between atoms: _498  and  _500
REMARK  206  A    between atoms: _500  and  _501
REMARK  207  A    between atoms: _500  and  _503
REMARK  208  A    between atoms: _503  and  _504
REMARK  209  A    between atoms: _504  and  _505
REMARK  210  A    between atoms: _510  and  _512
REMARK  211  A    between atoms: _512  and  _513
REMARK  212  A    between atoms: _512  and  _515
REMARK  213  A    between atoms: _515  and  _516
REMARK  214  A    between atoms: _519  and  _521
REMARK  215  A    between atoms: _521  and  _522
REMARK  216  A    between atoms: _521  and  _524
REMARK  217  A    between atoms: _524  and  _525
REMARK  218  A    between atoms: _530  and  _532
REMARK  219  A    between atoms: _532  and  _533
REMARK  220  A    between atoms: _536  and  _538
REMARK  221  A    between atoms: _538  and  _539
REMARK  222  A    between atoms: _538  and  _541
REMARK  223  A    between atoms: _541  and  _542
REMARK  224  A    between atoms: _542  and  _543
REMARK  225  A    between atoms: _543  and  _544
REMARK  226  A    between atoms: _553  and  _555
REMARK  227  A    between atoms: _555  and  _556
REMARK  228  A    between atoms: _555  and  _558
REMARK  229  A    between atoms: _558  and  _559
REMARK  230  A    between atoms: _565  and  _567
REMARK  231  A    between atoms: _567  and  _568
REMARK  232  A    between atoms: _567  and  _570
REMARK  233  A    between atoms: _570  and  _571
REMARK  234  A    between atoms: _571  and  _572
REMARK  235  A    between atoms: _574  and  _576
REMARK  236  A    between atoms: _576  and  _577
REMARK  237  A    between atoms: _576  and  _579
REMARK  238  A    between atoms: _579  and  _580
REMARK  239  A    between atoms: _583  and  _585
REMARK  240  A    between atoms: _585  and  _586
REMARK  241  A    between atoms: _585  and  _588
REMARK  242  A    between atoms: _588  and  _589
REMARK  243  A    between atoms: _596  and  _597
REMARK  244  A    between atoms: _602  and  _604
REMARK  245  A    between atoms: _604  and  _605
REMARK  246  A    between atoms: _604  and  _607
REMARK  247  A    between atoms: _607  and  _608
REMARK  248  A    between atoms: _614  and  _616
REMARK  249  A    between atoms: _616  and  _617
REMARK  250  A    between atoms: _616  and  _619
REMARK  251  A    between atoms: _619  and  _620
REMARK                            x       y       z     vdW  Elec       q    Type
REMARK                         _______ _______ _______ _____ _____    ______ ____
ROOT
ATOM      1  C   VAL A   1      25.590  19.760  -4.802  0.00  0.00    +0.238 C 
ATOM      2  N   ASP A   2      24.650  19.957  -3.883  0.00  0.00    -0.298 N 
ATOM      3  H   ASP A   2      23.753  19.433  -3.935  0.00  0.00    +0.150 HD
ATOM      4  O   VAL A   1      26.561  20.520  -4.926  0.00  0.00    -0.274 OA
ENDROOT
BRANCH   1   5
ATOM      5  CA  VAL A   1      25.377  18.579  -5.773  0.00  0.00    +0.145 C 
BRANCH   5   6
ATOM      6  CB  VAL A   1      26.425  17.476  -5.570  0.00  0.00    +0.025 C 
ATOM      7  CG2 VAL A   1      26.418  16.987  -4.151  0.00  0.00    +0.002 C 
ATOM      8  CG1 VAL A   1      26.118  16.275  -6.486  0.00  0.00    +0.002 C 
ENDBRANCH   5   6
BRANCH   5   9
ATOM      9  N   VAL A   1      25.392  19.020  -7.135  0.00  0.00    -0.238 NA
ATOM     10  H   VAL A   1      26.265  18.916  -7.691  0.00  0.00    +0.142 HD
ENDBRANCH   5   9
ENDBRANCH   1   5
BRANCH   2  11
ATOM     11  CA  ASP A   2      24.879  20.911  -2.800  0.00  0.00    +0.148 C 
BRANCH  11  12
ATOM     12  C   ASP A   2      25.850  20.263  -1.771  0.00  0.00    +0.227 C 
ATOM     13  O   ASP A   2      25.558  19.288  -1.062  0.00  0.00    -0.286 OA
ENDBRANCH  11  12
BRANCH  11  14
ATOM     14  CB  ASP A   2      23.568  21.400  -2.196  0.00  0.00    +0.142 C 
BRANCH  14  15
ATOM     15  CG  ASP A   2      23.773  22.391  -1.091  0.00  0.00    +0.367 C 
ATOM     16  OD2 ASP A   2      24.037  22.000   0.039  0.00  0.00    -0.246 OA
ATOM     17  OD1 ASP A   2      23.729  23.617  -1.241  0.00  0.00    -0.246 OA
ENDBRANCH  14  15
ENDBRANCH  11  14
ENDBRANCH   2  11
TORSDOF 7
REMARK  Name = ../refined-set-2016/1n46/1n46_pocket.pdb
REMARK  251 active torsions:
REMARK  status: ('A' for Active; 'I' for Inactive)
REMARK    1  A    between atoms: _1  and  _3
REMARK    2  A    between atoms: _3  and  _4
REMARK    3  A    between atoms: _3  and  _6
REMARK    4  A    between atoms: _6  and  _7
REMARK    5  A    between atoms: _12  and  _14
REMARK    6  A    between atoms: _14  and  _15
REMARK    7  A    between atoms: _14  and  _17
REMARK    8  A    between atoms: _17  and  _18
REMARK    9  A    between atoms: _21  and  _23
REMARK   10  A    between atoms: _23  and  _24
REMARK   11  A    between atoms: _23  and  _26
REMARK   12  A    between atoms: _26  and  _27
REMARK   13  A    between atoms: _32  and  _34
REMARK   14  A    between atoms: _34  and  _35
REMARK   15  A    between atoms: _38  and  _40
REMARK   16  A    between atoms: _40  and  _41
REMARK   17  A    between atoms: _40  and  _43
REMARK   18  A    between atoms: _46  and  _48
REMARK   19  A    between atoms: _48  and  _49
REMARK   20  A    between atoms: _48  and  _51
REMARK   21  A    between atoms: _51  and  _52
REMARK   22  A    between atoms: _55  and  _57
REMARK   23  A    between atoms: _57  and  _58
REMARK   24  A    between atoms: _61  and  _63
REMARK   25  A    between atoms: _63  and  _64
REMARK   26  A    between atoms: _63  and  _66
REMARK   27  A    between atoms: _66  and  _67
REMARK   28  A    between atoms: _73  and  _75
REMARK   29  A    between atoms: _75  and  _76
REMARK   30  A    between atoms: _75  and  _78
REMARK   31  A    between atoms: _78  and  _79
REMARK   32  A    between atoms: _81  and  _83
REMARK   33  A    between atoms: _83  and  _84
REMARK   34  A    between atoms: _83  and  _86
REMARK   35  A    between atoms: _86  and  _87
REMARK   36  A    between atoms: _92  and  _94
REMARK   37  A    between atoms: _94  and  _95
REMARK   38  A    between atoms: _94  and  _97
REMARK   39  A    between atoms: _97  and  _98
REMARK   40  A    between atoms: _104  and  _106
REMARK   41  A    between atoms: _106  and  _107
REMARK   42  A    between atoms: _106  and  _109
REMARK   43  A    between atoms: _109  and  _110
REMARK   44  A    between atoms: _113  and  _115
REMARK   45  A    between atoms: _115  and  _116
REMARK   46  A    between atoms: _115  and  _118
REMARK   47  A    between atoms: _118  and  _119
REMARK   48  A    between atoms: _119  and  _120
REMARK   49  A    between atoms: _120  and  _121
REMARK   50  A    between atoms: _121  and  _122
REMARK   51  A    between atoms: _126  and  _128
REMARK   52  A    between atoms: _128  and  _129
REMARK   53  A    between atoms: _128  and  _131
REMARK   54  A    between atoms: _131  and  _132
REMARK   55  A    between atoms: _135  and  _137
REMARK   56  A    between atoms: _137  and  _138
REMARK   57  A    between atoms: _137  and  _140
REMARK   58  A    between atoms: _140  and  _141
REMARK   59  A    between atoms: _144  and  _146
REMARK   60  A    between atoms: _146  and  _147
REMARK   61  A    between atoms: _146  and  _149
REMARK   62  A    between atoms: _149  and  _150
REMARK   63  A    between atoms: _154  and  _155
REMARK   64  A    between atoms: _160  and  _162
REMARK   65  A    between atoms: _162  and  _163
REMARK   66  A    between atoms: _166  and  _168
REMARK   67  A    between atoms: _168  and  _169
REMARK   68  A    between atoms: _168  and  _171
REMARK   69  A    between atoms: _171  and  _172
REMARK   70  A    between atoms: _177  and  _178
REMARK   71  A    between atoms: _177  and  _180
REMARK   72  A    between atoms: _180  and  _181
REMARK   73  A    between atoms: _184  and  _186
REMARK   74  A    between atoms: _186  and  _187
REMARK   75  A    between atoms: _186  and  _189
REMARK   76  A    between atoms: _189  and  _190
REMARK   77  A    between atoms: _190  and  _191
REMARK   78  A    between atoms: _191  and  _192
REMARK   79  A    between atoms: _201  and  _203
REMARK   80  A    between atoms: _203  and  _204
REMARK   81  A    between atoms: _203  and  _206
REMARK   82  A    between atoms: _209  and  _211
REMARK   83  A    between atoms: _211  and  _212
REMARK   84  A    between atoms: _211  and  _214
REMARK   85  A    between atoms: _217  and  _219
REMARK   86  A    between atoms: _219  and  _220
REMARK   87  A    between atoms: _219  and  _222
REMARK   88  A    between atoms: _224  and  _226
REMARK   89  A    between atoms: _226  and  _227
REMARK   90  A    between atoms: _226  and  _229
REMARK   91  A    between atoms: _229  and  _230
REMARK   92  A    between atoms: _230  and  _231
REMARK   93  A    between atoms: _233  and  _235
REMARK   94  A    between atoms: _235  and  _236
REMARK   95  A    between atoms: _235  and  _238
REMARK   96  A    between atoms: _238  and  _239
REMARK   97  A    between atoms: _242  and  _244
REMARK   98  A    between atoms: _244  and  _245
REMARK   99  A    between atoms: _244  and  _247
REMARK  100  A    between atoms: _247  and  _248
REMARK  101  A    between atoms: _248  and  _249
REMARK  102  A    between atoms: _251  and  _253
REMARK  103  A    between atoms: _253  and  _254
REMARK  104  A    between atoms: _253  and  _256
REMARK  105  A    between atoms: _256  and  _257
REMARK  106  A    between atoms: _259  and  _261
REMARK  107  A    between atoms: _261  and  _262
REMARK  108  A    between atoms: _261  and  _264
REMARK  109  A    between atoms: _264  and  _265
REMARK  110  A    between atoms: _268  and  _270
REMARK  111  A    between atoms: _270  and  _271
REMARK  112  A    between atoms: _270  and  _273
REMARK  113  A    between atoms: _273  and  _274
REMARK  114  A    between atoms: _274  and  _275
REMARK  115  A    between atoms: _275  and  _276
REMARK  116  A    between atoms: _285  and  _287
REMARK  117  A    between atoms: _287  and  _288
REMARK  118  A    between atoms: _291  and  _293
REMARK  119  A    between atoms: _293  and  _294
REMARK  120  A    between atoms: _297  and  _299
REMARK  121  A    between atoms: _299  and  _300
REMARK  122  A    between atoms: _299  and  _302
REMARK  123  A    between atoms: _305  and  _307
REMARK  124  A    between atoms: _307  and  _308
REMARK  125  A    between atoms: _307  and  _310
REMARK  126  A    between atoms: _310  and  _311
REMARK  127  A    between atoms: _311  and  _312
REMARK  128  A    between atoms: _312  and  _313
REMARK  129  A    between atoms: _322  and  _324
REMARK  130  A    between atoms: _324  and  _325
REMARK  131  A    between atoms: _324  and  _327
REMARK  132  A    between atoms: _327  and  _328
REMARK  133  A    between atoms: _331  and  _333
REMARK  134  A    between atoms: _333  and  _334
REMARK  135  A    between atoms: _333  and  _336
REMARK  136  A    between atoms: _336  and  _337
REMARK  137  A    between atoms: _340  and  _342
REMARK  138  A    between atoms: _342  and  _343
REMARK  139  A    between atoms: _342  and  _345
REMARK  140  A    between atoms: _345  and  _346
REMARK  141  A    between atoms: _349  and  _351
REMARK  142  A    between atoms: _351  and  _352
REMARK  143  A    between atoms: _351  and  _354
REMARK  144  A    between atoms: _354  and  _355
REMARK  145  A    between atoms: _360  and  _362
REMARK  146  A    between atoms: _362  and  _363
REMARK  147  A    between atoms: _365  and  _367
REMARK  148  A    between atoms: _367  and  _368
REMARK  149  A    between atoms: _367  and  _370
REMARK  150  A    between atoms: _370  and  _371
REMARK  151  A    between atoms: _371  and  _372
REMARK  152  A    between atoms: _375  and  _377
REMARK  153  A    between atoms: _377  and  _378
REMARK  154  A    between atoms: _377  and  _380
REMARK  155  A    between atoms: _380  and  _381
REMARK  156  A    between atoms: _381  and  _382
REMARK  157  A    between atoms: _384  and  _386
REMARK  158  A    between atoms: _386  and  _387
REMARK  159  A    between atoms: _386  and  _389
REMARK  160  A    between atoms: _392  and  _394
REMARK  161  A    between atoms: _394  and  _395
REMARK  162  A    between atoms: _394  and  _397
REMARK  163  A    between atoms: _397  and  _398
REMARK  164  A    between atoms: _398  and  _399
REMARK  165  A    between atoms: _404  and  _406
REMARK  166  A    between atoms: _406  and  _407
REMARK  167  A    between atoms: _406  and  _409
REMARK  168  A    between atoms: _409  and  _410
REMARK  169  A    between atoms: _413  and  _415
REMARK  170  A    between atoms: _415  and  _416
REMARK  171  A    between atoms: _415  and  _418
REMARK  172  A    between atoms: _418  and  _419
REMARK  173  A    between atoms: _419  and  _420
REMARK  174  A    between atoms: _420  and  _421
REMARK  175  A    between atoms: _421  and  _422
REMARK  176  A    between atoms: _426  and  _428
REMARK  177  A    between atoms: _428  and  _429
REMARK  178  A    between atoms: _428  and  _431
REMARK  179  A    between atoms: _431  and  _432
REMARK  180  A    between atoms: _437  and  _439
REMARK  181  A    between atoms: _439  and  _440
REMARK  182  A    between atoms: _442  and  _444
REMARK  183  A    between atoms: _444  and  _445
REMARK  184  A    between atoms: _447  and  _449
REMARK  185  A    between atoms: _449  and  _450
REMARK  186  A    between atoms: _449  and  _452
REMARK  187  A    between atoms: _452  and  _453
REMARK  188  A    between atoms: _456  and  _458
REMARK  189  A    between atoms: _458  and  _459
REMARK  190  A    between atoms: _461  and  _463
REMARK  191  A    between atoms: _463  and  _464
REMARK  192  A    between atoms: _463  and  _466
REMARK  193  A    between atoms: _469  and  _471
REMARK  194  A    between atoms: _471  and  _472
REMARK  195  A    between atoms: _471  and  _474
REMARK  196  A    between atoms: _474  and  _475
REMARK  197  A    between atoms: _477  and  _479
REMARK  198  A    between atoms: _479  and  _480
REMARK  199  A    between atoms: _479  and  _482
REMARK  200  A    between atoms: _482  and  _483
REMARK  201  A    between atoms: _486  and  _488
REMARK  202  A    between atoms: _488  and  _489
REMARK  203  A    between atoms: _488  and  _491
REMARK  204  A    between atoms: _491  and  _492
REMARK  205  A    between atoms: _498  and  _500
REMARK  206  A    between atoms: _500  and  _501
REMARK  207  A    between atoms: _500  and  _503
REMARK  208  A    between atoms: _503  and  _504
REMARK  209  A    between atoms: _504  and  _505
REMARK  210  A    between atoms: _510  and  _512
REMARK  211  A    between atoms: _512  and  _513
REMARK  212  A    between atoms: _512  and  _515
REMARK  213  A    between atoms: _515  and  _516
REMARK  214  A    between atoms: _519  and  _521
REMARK  215  A    between atoms: _521  and  _522
REMARK  216  A    between atoms: _521  and  _524
REMARK  217  A    between atoms: _524  and  _525
REMARK  218  A    between atoms: _530  and  _532
REMARK  219  A    between atoms: _532  and  _533
REMARK  220  A    between atoms: _536  and  _538
REMARK  221  A    between atoms: _538  and  _539
REMARK  222  A    between atoms: _538  and  _541
REMARK  223  A    between atoms: _541  and  _542
REMARK  224  A    between atoms: _542  and  _543
REMARK  225  A    between atoms: _543  and  _544
REMARK  226  A    between atoms: _553  and  _555
REMARK  227  A    between atoms: _555  and  _556
REMARK  228  A    between atoms: _555  and  _558
REMARK  229  A    between atoms: _558  and  _559
REMARK  230  A    between atoms: _565  and  _567
REMARK  231  A    between atoms: _567  and  _568
REMARK  232  A    between atoms: _567  and  _570
REMARK  233  A    between atoms: _570  and  _571
REMARK  234  A    between atoms: _571  and  _572
REMARK  235  A    between atoms: _574  and  _576
REMARK  236  A    between atoms: _576  and  _577
REMARK  237  A    between atoms: _576  and  _579
REMARK  238  A    between atoms: _579  and  _580
REMARK  239  A    between atoms: _583  and  _585
REMARK  240  A    between atoms: _585  and  _586
REMARK  241  A    between atoms: _585  and  _588
REMARK  242  A    between atoms: _588  and  _589
REMARK  243  A    between atoms: _596  and  _597
REMARK  244  A    between atoms: _602  and  _604
REMARK  245  A    between atoms: _604  and  _605
REMARK  246  A    between atoms: _604  and  _607
REMARK  247  A    between atoms: _607  and  _608
REMARK  248  A    between atoms: _614  and  _616
REMARK  249  A    between atoms: _616  and  _617
REMARK  250  A    between atoms: _616  and  _619
REMARK  251  A    between atoms: _619  and  _620
REMARK                            x       y       z     vdW  Elec       q    Type
REMARK                         _______ _______ _______ _____ _____    ______ ____
ROOT
ATOM      1  C   ILE A   8      25.297   7.968   7.783  0.00  0.00    +0.241 C 
ATOM      2  O   ILE A   8      24.596   6.997   7.966  0.00  0.00    -0.273 OA
ATOM      3  N   ILE A   9      26.101   8.032   6.735  0.00  0.00    -0.297 N 
ATOM      4  H   ILE A   9      26.746   8.839   6.616  0.00  0.00    +0.150 HD
ENDROOT
BRANCH   1   5
ATOM      5  CA  ILE A   8      25.255   9.230   8.744  0.00  0.00    +0.149 C 
BRANCH   5   8
ATOM      6  C   LYS A   7      27.180  10.737   8.783  0.00  0.00    +0.241 C 
ATOM      7  O   LYS A   7      27.597  10.231   9.786  0.00  0.00    -0.273 OA
ATOM      8  N   ILE A   8      26.048  10.329   8.204  0.00  0.00    -0.297 N 
ATOM      9  H   ILE A   8      25.722  10.810   7.341  0.00  0.00    +0.150 HD
BRANCH   6  10
ATOM     10  CA  LYS A   7      27.938  11.937   8.183  0.00  0.00    +0.149 C 
BRANCH  10  12
ATOM     11  C   THR A   6      28.110  11.172   5.875  0.00  0.00    +0.243 C 
ATOM     12  N   LYS A   7      27.703  12.093   6.742  0.00  0.00    -0.297 N 
ATOM     13  H   LYS A   7      27.209  12.939   6.394  0.00  0.00    +0.150 HD
ATOM     14  O   THR A   6      28.768  10.225   6.195  0.00  0.00    -0.273 OA
BRANCH  11  15
ATOM     15  CA  THR A   6      27.722  11.372   4.407  0.00  0.00    +0.176 C 
BRANCH  15  18
ATOM     16  C   PHE A   5      25.412  12.001   4.754  0.00  0.00    +0.241 C 
ATOM     17  O   PHE A   5      25.184  10.915   5.300  0.00  0.00    -0.273 OA
ATOM     18  N   THR A   6      26.615  12.347   4.320  0.00  0.00    -0.295 N 
ATOM     19  H   THR A   6      26.778  13.294   3.923  0.00  0.00    +0.150 HD
BRANCH  16  20
ATOM     20  CA  PHE A   5      24.284  12.984   4.553  0.00  0.00    +0.153 C 
BRANCH  20  23
ATOM     21  C   HIS A   4      24.995  14.652   6.061  0.00  0.00    +0.241 C 
ATOM     22  O   HIS A   4      24.883  13.837   6.972  0.00  0.00    -0.273 OA
ATOM     23  N   PHE A   5      24.668  14.343   4.820  0.00  0.00    -0.297 N 
ATOM     24  H   PHE A   5      24.688  15.056   4.064  0.00  0.00    +0.150 HD
BRANCH  21  25
ATOM     25  CA  HIS A   4      25.486  16.067   6.322  0.00  0.00    +0.155 C 
BRANCH  25  28
ATOM     26  C   SER A   3      27.541  16.006   5.053  0.00  0.00    +0.243 C 
ATOM     27  O   SER A   3      27.968  15.124   5.777  0.00  0.00    -0.273 OA
ATOM     28  N   HIS A   4      26.370  16.571   5.261  0.00  0.00    -0.297 N 
ATOM     29  H   HIS A   4      26.070  17.375   4.674  0.00  0.00    +0.150 HD
BRANCH  26  30
ATOM     30  CA  SER A   3      28.357  16.433   3.856  0.00  0.00    +0.178 C 
BRANCH  30  32
ATOM     31  C   PHE A   2      26.771  15.819   2.133  0.00  0.00    +0.241 C 
ATOM     32  N   SER A   3      27.538  16.768   2.693  0.00  0.00    -0.295 N 
ATOM     33  H   SER A   3      27.549  17.732   2.303  0.00  0.00    +0.150 HD
ATOM     34  O   PHE A   2      26.667  14.632   2.557  0.00  0.00    -0.273 OA
BRANCH  31  35
ATOM     35  CA  PHE A   2      25.993  16.254   0.910  0.00  0.00    +0.153 C 
BRANCH  35  38
ATOM     36  C   ALA A   1      24.454  17.634   2.179  0.00  0.00    +0.238 C 
ATOM     37  O   ALA A   1      24.291  16.787   3.032  0.00  0.00    -0.274 OA
ATOM     38  N   PHE A   2      25.329  17.515   1.190  0.00  0.00    -0.297 N 
ATOM     39  H   PHE A   2      25.545  18.344   0.601  0.00  0.00    +0.150 HD
BRANCH  36  40
ATOM     40  CA  ALA A   1      23.724  18.962   2.263  0.00  0.00    +0.145 C 
ATOM     41  CB  ALA A   1      22.552  19.046   1.235  0.00  0.00    +0.028 C 
BRANCH  40  42
ATOM     42  N   ALA A   1      24.691  20.019   2.071  0.00  0.00    -0.238 NA
ATOM     43  H   ALA A   1      24.552  20.709   1.306  0.00  0.00    +0.142 HD
ENDBRANCH  40  42
ENDBRANCH  36  40
ENDBRANCH  35  38
BRANCH  35  44
ATOM     44  CB  PHE A   2      26.942  16.371  -0.295  0.00  0.00    +0.055 C 
BRANCH  44  45
ATOM     45  CG  PHE A   2      27.725  15.135  -0.598  0.00  0.00    -0.020 A 
ATOM     46  CD2 PHE A   2      29.086  15.021  -0.216  0.00  0.00    -0.004 A 
ATOM     47  CE2 PHE A   2      29.829  13.902  -0.553  0.00  0.00    -0.000 A 
ATOM     48  CZ  PHE A   2      29.208  12.857  -1.280  0.00  0.00    -0.000 A 
ATOM     49  CE1 PHE A   2      27.879  12.969  -1.668  0.00  0.00    -0.000 A 
ATOM     50  CD1 PHE A   2      27.152  14.113  -1.335  0.00  0.00    -0.004 A 
ENDBRANCH  44  45
ENDBRANCH  35  44
ENDBRANCH  31  35
ENDBRANCH  30  32
BRANCH  30  51
ATOM     51  CB  SER A   3      29.363  17.524   4.244  0.00  0.00    +0.166 C 
BRANCH  51  52
ATOM     52  OG  SER A   3      28.731  18.640   4.795  0.00  0.00    -0.380 OA
ATOM     53  H   SER A   3      28.099  19.020   4.134  0.00  0.00    +0.211 HD
ENDBRANCH  51  52
ENDBRANCH  30  51
ENDBRANCH  26  30
ENDBRANCH  25  28
BRANCH  25  54
ATOM     54  CB  HIS A   4      24.265  16.957   6.487  0.00  0.00    +0.076 C 
BRANCH  54  55
ATOM     55  CG  HIS A   4      24.527  18.212   7.245  0.00  0.00    +0.082 A 
ATOM     56  CD2 HIS A   4      24.353  18.511   8.546  0.00  0.00    +0.115 A 
ATOM     57  NE2 HIS A   4      24.738  19.811   8.714  0.00  0.00    -0.221 NA
ATOM     58  CE1 HIS A   4      25.175  20.286   7.568  0.00  0.00    +0.199 A 
ATOM     59  ND1 HIS A   4      25.049  19.342   6.658  0.00  0.00    -0.227 NA
ENDBRANCH  54  55
ENDBRANCH  25  54
ENDBRANCH  21  25
ENDBRANCH  20  23
BRANCH  20  60
ATOM     60  CB  PHE A   5      23.704  12.872   3.153  0.00  0.00    +0.055 C 
BRANCH  60  61
ATOM     61  CG  PHE A   5      22.402  13.598   2.994  0.00  0.00    -0.020 A 
ATOM     62  CD2 PHE A   5      21.360  13.375   3.885  0.00  0.00    -0.004 A 
ATOM     63  CE2 PHE A   5      20.137  14.031   3.705  0.00  0.00    -0.000 A 
ATOM     64  CZ  PHE A   5      20.009  14.972   2.743  0.00  0.00    -0.000 A 
ATOM     65  CE1 PHE A   5      21.046  15.181   1.870  0.00  0.00    -0.000 A 
ATOM     66  CD1 PHE A   5      22.229  14.512   2.017  0.00  0.00    -0.004 A 
ENDBRANCH  60  61
ENDBRANCH  20  60
ENDBRANCH  16  20
ENDBRANCH  15  18
BRANCH  15  67
ATOM     67  CB  THR A   6      28.998  11.777   3.593  0.00  0.00    +0.137 C 
ATOM     68  CG2 THR A   6      28.683  11.882   2.070  0.00  0.00    +0.034 C 
BRANCH  67  69
ATOM     69  OG1 THR A   6      29.474  13.084   3.959  0.00  0.00    -0.382 OA
ATOM     70  HG1 THR A   6      30.278  13.303   3.425  0.00  0.00    +0.210 HD
ENDBRANCH  67  69
ENDBRANCH  15  67
ENDBRANCH  11  15
ENDBRANCH  10  12
BRANCH  10  71
ATOM     71  CB  LYS A   7      27.565  13.226   8.951  0.00  0.00    +0.029 C 
BRANCH  71  72
ATOM     72  CG  LYS A   7      28.673  13.795   9.792  0.00  0.00    +0.000 C 
BRANCH  72  73
ATOM     73  CD  LYS A   7      28.513  15.322  10.021  0.00  0.00    -0.024 C 
BRANCH  73  74
ATOM     74  CE  LYS A   7      29.211  15.787  11.329  0.00  0.00    -0.086 C 
BRANCH  74  75
ATOM     75  NZ  LYS A   7      30.050  17.012  11.138  0.00  0.00    +0.380 N 
ATOM     76  HZ1 LYS A   7      30.490  17.274  12.043  0.00  0.00    -0.089 HD
ATOM     77  HZ2 LYS A   7      29.450  17.793  10.804  0.00  0.00    -0.089 HD
ATOM     78  HZ3 LYS A   7      30.791  16.817  10.435  0.00  0.00    -0.089 HD
ENDBRANCH  74  75
ENDBRANCH  73  74
ENDBRANCH  72  73
ENDBRANCH  71  72
ENDBRANCH  10  71
ENDBRANCH   6  10
ENDBRANCH   5   8
BRANCH   5  79
ATOM     79  CB  ILE A   8      23.819   9.704   8.975  0.00  0.00    +0.027 C 
ATOM     80  CG2 ILE A   8      23.805  10.959   9.895  0.00  0.00    +0.002 C 
BRANCH  79  81
ATOM     81  CG1 ILE A   8      23.129  10.008   7.638  0.00  0.00    +0.002 C 
ATOM     82  CD1 ILE A   8      21.589  10.198   7.687  0.00  0.00    +0.000 C 
ENDBRANCH  79  81
ENDBRANCH   5  79
ENDBRANCH   1   5
BRANCH   3  83
ATOM     83  CA  ILE A   9      26.074   6.990   5.777  0.00  0.00    +0.149 C 
BRANCH  83  84
ATOM     84  C   ILE A   9      26.908   5.777   6.252  0.00  0.00    +0.241 C 
ATOM     85  N   THR A  10      27.890   5.964   7.124  0.00  0.00    -0.295 N 
ATOM     86  H   THR A  10      28.109   6.921   7.467  0.00  0.00    +0.150 HD
ATOM     87  O   ILE A   9      26.640   4.667   5.863  0.00  0.00    -0.273 OA
BRANCH  85  88
ATOM     88  CA  THR A  10      28.663   4.817   7.601  0.00  0.00    +0.176 C 
BRANCH  88  89
ATOM     89  C   THR A  10      27.769   3.937   8.461  0.00  0.00    +0.250 C 
ATOM     90  N   PRO A  11      27.135   4.473   9.511  0.00  0.00    -0.249 N 
ATOM     91  CA  PRO A  11      26.178   3.680  10.287  0.00  0.00    +0.160 C 
ATOM     92  CB  PRO A  11      25.535   4.694  11.241  0.00  0.00    +0.057 C 
ATOM     93  CG  PRO A  11      26.229   6.006  11.025  0.00  0.00    -0.008 C 
ATOM     94  CD  PRO A  11      27.244   5.863   9.988  0.00  0.00    +0.063 C 
ATOM     95  O   THR A  10      27.617   2.792   8.125  0.00  0.00    -0.273 OA
BRANCH  91  96
ATOM     96  C   PRO A  11      25.080   3.084   9.386  0.00  0.00    +0.242 C 
ATOM     97  O   PRO A  11      24.634   1.969   9.600  0.00  0.00    -0.273 OA
ATOM     98  N   ALA A  12      24.626   3.842   8.386  0.00  0.00    -0.297 N 
ATOM     99  H   ALA A  12      25.022   4.789   8.219  0.00  0.00    +0.150 HD
BRANCH  98 100
ATOM    100  CA  ALA A  12      23.558   3.317   7.525  0.00  0.00    +0.149 C 
ATOM    101  CB  ALA A  12      23.073   4.394   6.487  0.00  0.00    +0.031 C 
BRANCH 100 102
ATOM    102  C   ALA A  12      24.000   2.036   6.798  0.00  0.00    +0.241 C 
ATOM    103  O   ALA A  12      23.291   1.091   6.735  0.00  0.00    -0.273 OA
ATOM    104  N   ILE A  13      25.179   2.055   6.219  0.00  0.00    -0.297 N 
ATOM    105  H   ILE A  13      25.774   2.902   6.313  0.00  0.00    +0.150 HD
BRANCH 104 106
ATOM    106  CA  ILE A  13      25.676   0.924   5.449  0.00  0.00    +0.149 C 
BRANCH 106 107
ATOM    107  C   ILE A  13      25.951  -0.257   6.396  0.00  0.00    +0.244 C 
ATOM    108  N   THR A  14      26.385   0.033   7.616  0.00  0.00    -0.280 N 
ATOM    109  CA  THR A  14      26.768  -1.072   8.512  0.00  0.00    +0.108 C 
ATOM    110  H   THR A  14      26.453   1.021   7.933  0.00  0.00    +0.155 HD
ATOM    111  O   ILE A  13      25.795  -1.421   6.016  0.00  0.00    -0.273 OA
BRANCH 109 112
ATOM    112  C   THR A  14      25.575  -1.842   9.025  0.00  0.00    +0.258 C 
ATOM    113  N   ARG A  15      24.475  -1.158   9.184  0.00  0.00    -0.294 N 
ATOM    114  H   ARG A  15      24.496  -0.123   9.087  0.00  0.00    +0.150 HD
ATOM    115  O   THR A  14      25.636  -3.055   9.133  0.00  0.00    -0.269 OA
BRANCH 113 116
ATOM    116  CA  ARG A  15      23.235  -1.817   9.492  0.00  0.00    +0.149 C 
BRANCH 116 117
ATOM    117  C   ARG A  15      22.771  -2.738   8.373  0.00  0.00    +0.241 C 
ATOM    118  O   ARG A  15      22.225  -3.825   8.620  0.00  0.00    -0.273 OA
ATOM    119  N   VAL A  16      23.003  -2.351   7.142  0.00  0.00    -0.297 N 
ATOM    120  H   VAL A  16      23.414  -1.418   6.937  0.00  0.00    +0.150 HD
BRANCH 119 121
ATOM    121  CA  VAL A  16      22.662  -3.278   6.076  0.00  0.00    +0.149 C 
BRANCH 121 122
ATOM    122  C   VAL A  16      23.633  -4.464   6.201  0.00  0.00    +0.241 C 
ATOM    123  N   VAL A  17      24.929  -4.212   6.413  0.00  0.00    -0.298 N 
ATOM    124  H   VAL A  17      25.245  -3.227   6.522  0.00  0.00    +0.150 HD
ATOM    125  O   VAL A  16      23.203  -5.595   6.097  0.00  0.00    -0.273 OA
BRANCH 123 126
ATOM    126  CA  VAL A  17      25.911  -5.293   6.495  0.00  0.00    +0.137 C 
BRANCH 126 127
ATOM    127  CB  VAL A  17      27.390  -4.764   6.628  0.00  0.00    +0.026 C 
ATOM    128  CG2 VAL A  17      28.381  -5.895   7.064  0.00  0.00    +0.002 C 
ATOM    129  CG1 VAL A  17      27.921  -4.081   5.337  0.00  0.00    +0.002 C 
ENDBRANCH 126 127
BRANCH 126 130
ATOM    130  C   VAL A  17      25.584  -6.202   7.701  0.00  0.00    +0.227 C 
ATOM    131  O   VAL A  17      25.716  -7.406   7.596  0.00  0.00    -0.286 OA
ENDBRANCH 126 130
ENDBRANCH 123 126
ENDBRANCH 121 122
BRANCH 121 132
ATOM    132  CB  VAL A  16      22.715  -2.668   4.681  0.00  0.00    +0.027 C 
ATOM    133  CG2 VAL A  16      21.880  -1.335   4.586  0.00  0.00    +0.002 C 
ATOM    134  CG1 VAL A  16      22.270  -3.702   3.639  0.00  0.00    +0.002 C 
ENDBRANCH 121 132
ENDBRANCH 119 121
ENDBRANCH 116 117
BRANCH 116 135
ATOM    135  CB  ARG A  15      22.190  -0.774   9.782  0.00  0.00    +0.033 C 
BRANCH 135 136
ATOM    136  CG  ARG A  15      22.592   0.025  10.964  0.00  0.00    +0.045 C 
BRANCH 136 137
ATOM    137  CD  ARG A  15      21.419   0.546  11.754  0.00  0.00    +0.174 C 
BRANCH 137 138
ATOM    138  NE  ARG A  15      21.304   1.970  11.563  0.00  0.00    -0.265 N 
ATOM    139  HE  ARG A  15      22.187   2.518  11.596  0.00  0.00    +0.259 HD
ATOM    140  CZ  ARG A  15      20.192   2.651  11.350  0.00  0.00    +0.342 C 
ATOM    141  NH2 ARG A  15      20.330   3.940  11.239  0.00  0.00    -0.292 N 
ATOM    142 HH21 ARG A  15      21.273   4.371  11.319  0.00  0.00    +0.255 HD
ATOM    143 HH22 ARG A  15      19.497   4.540  11.071  0.00  0.00    +0.255 HD
ATOM    144  NH1 ARG A  15      18.973   2.112  11.183  0.00  0.00    -0.292 N 
ATOM    145 HH11 ARG A  15      18.852   1.080  11.217  0.00  0.00    +0.255 HD
ATOM    146 HH12 ARG A  15      18.150   2.727  11.020  0.00  0.00    +0.255 HD
ENDBRANCH 137 138
ENDBRANCH 136 137
ENDBRANCH 135 136
ENDBRANCH 116 135
ENDBRANCH 113 116
ENDBRANCH 109 112
BRANCH 109 147
ATOM    147  CB  THR A  14      27.967  -0.782   9.562  0.00  0.00    +0.151 C 
ATOM    148  CG2 THR A  14      28.621   0.473   9.275  0.00  0.00    +0.038 C 
BRANCH 147 149
ATOM    149  OG1 THR A  14      27.591  -0.808  10.969  0.00  0.00    -0.379 OA
ATOM    150  HG1 THR A  14      28.388  -0.621  11.526  0.00  0.00    +0.211 HD
ENDBRANCH 147 149
ENDBRANCH 109 147
ENDBRANCH 106 107
BRANCH 106 151
ATOM    151  CB  ILE A  13      26.963   1.289   4.689  0.00  0.00    +0.027 C 
ATOM    152  CG2 ILE A  13      27.657   0.098   4.105  0.00  0.00    +0.002 C 
BRANCH 151 153
ATOM    153  CG1 ILE A  13      26.739   2.324   3.618  0.00  0.00    +0.002 C 
ATOM    154  CD1 ILE A  13      28.074   2.874   3.028  0.00  0.00    +0.000 C 
ENDBRANCH 151 153
ENDBRANCH 106 151
ENDBRANCH 104 106
ENDBRANCH 100 102
ENDBRANCH  98 100
ENDBRANCH  91  96
ENDBRANCH  88  89
BRANCH  88 155
ATOM    155  CB  THR A  10      29.924   5.251   8.307  0.00  0.00    +0.137 C 
ATOM    156  CG2 THR A  10      30.733   4.049   8.936  0.00  0.00    +0.034 C 
BRANCH 155 157
ATOM    157  OG1 THR A  10      30.810   5.763   7.315  0.00  0.00    -0.382 OA
ATOM    158  HG1 THR A  10      30.384   6.532   6.859  0.00  0.00    +0.210 HD
ENDBRANCH 155 157
ENDBRANCH  88 155
ENDBRANCH  85  88
ENDBRANCH  83  84
BRANCH  83 159
ATOM    159  CB  ILE A   9      26.416   7.506   4.339  0.00  0.00    +0.027 C 
ATOM    160  CG2 ILE A   9      27.832   7.371   4.052  0.00  0.00    +0.002 C 
BRANCH 159 161
ATOM    161  CG1 ILE A   9      25.613   6.674   3.324  0.00  0.00    +0.002 C 
ATOM    162  CD1 ILE A   9      25.135   7.411   2.234  0.00  0.00    +0.000 C 
ENDBRANCH 159 161
ENDBRANCH  83 159
ENDBRANCH   3  83
TORSDOF 63
REMARK  Name = ../refined-set-2016/1n46/1n46_pocket.pdb
REMARK  251 active torsions:
REMARK  status: ('A' for Active; 'I' for Inactive)
REMARK    1  A    between atoms: _1  and  _3
REMARK    2  A    between atoms: _3  and  _4
REMARK    3  A    between atoms: _3  and  _6
REMARK    4  A    between atoms: _6  and  _7
REMARK    5  A    between atoms: _12  and  _14
REMARK    6  A    between atoms: _14  and  _15
REMARK    7  A    between atoms: _14  and  _17
REMARK    8  A    between atoms: _17  and  _18
REMARK    9  A    between atoms: _21  and  _23
REMARK   10  A    between atoms: _23  and  _24
REMARK   11  A    between atoms: _23  and  _26
REMARK   12  A    between atoms: _26  and  _27
REMARK   13  A    between atoms: _32  and  _34
REMARK   14  A    between atoms: _34  and  _35
REMARK   15  A    between atoms: _38  and  _40
REMARK   16  A    between atoms: _40  and  _41
REMARK   17  A    between atoms: _40  and  _43
REMARK   18  A    between atoms: _46  and  _48
REMARK   19  A    between atoms: _48  and  _49
REMARK   20  A    between atoms: _48  and  _51
REMARK   21  A    between atoms: _51  and  _52
REMARK   22  A    between atoms: _55  and  _57
REMARK   23  A    between atoms: _57  and  _58
REMARK   24  A    between atoms: _61  and  _63
REMARK   25  A    between atoms: _63  and  _64
REMARK   26  A    between atoms: _63  and  _66
REMARK   27  A    between atoms: _66  and  _67
REMARK   28  A    between atoms: _73  and  _75
REMARK   29  A    between atoms: _75  and  _76
REMARK   30  A    between atoms: _75  and  _78
REMARK   31  A    between atoms: _78  and  _79
REMARK   32  A    between atoms: _81  and  _83
REMARK   33  A    between atoms: _83  and  _84
REMARK   34  A    between atoms: _83  and  _86
REMARK   35  A    between atoms: _86  and  _87
REMARK   36  A    between atoms: _92  and  _94
REMARK   37  A    between atoms: _94  and  _95
REMARK   38  A    between atoms: _94  and  _97
REMARK   39  A    between atoms: _97  and  _98
REMARK   40  A    between atoms: _104  and  _106
REMARK   41  A    between atoms: _106  and  _107
REMARK   42  A    between atoms: _106  and  _109
REMARK   43  A    between atoms: _109  and  _110
REMARK   44  A    between atoms: _113  and  _115
REMARK   45  A    between atoms: _115  and  _116
REMARK   46  A    between atoms: _115  and  _118
REMARK   47  A    between atoms: _118  and  _119
REMARK   48  A    between atoms: _119  and  _120
REMARK   49  A    between atoms: _120  and  _121
REMARK   50  A    between atoms: _121  and  _122
REMARK   51  A    between atoms: _126  and  _128
REMARK   52  A    between atoms: _128  and  _129
REMARK   53  A    between atoms: _128  and  _131
REMARK   54  A    between atoms: _131  and  _132
REMARK   55  A    between atoms: _135  and  _137
REMARK   56  A    between atoms: _137  and  _138
REMARK   57  A    between atoms: _137  and  _140
REMARK   58  A    between atoms: _140  and  _141
REMARK   59  A    between atoms: _144  and  _146
REMARK   60  A    between atoms: _146  and  _147
REMARK   61  A    between atoms: _146  and  _149
REMARK   62  A    between atoms: _149  and  _150
REMARK   63  A    between atoms: _154  and  _155
REMARK   64  A    between atoms: _160  and  _162
REMARK   65  A    between atoms: _162  and  _163
REMARK   66  A    between atoms: _166  and  _168
REMARK   67  A    between atoms: _168  and  _169
REMARK   68  A    between atoms: _168  and  _171
REMARK   69  A    between atoms: _171  and  _172
REMARK   70  A    between atoms: _177  and  _178
REMARK   71  A    between atoms: _177  and  _180
REMARK   72  A    between atoms: _180  and  _181
REMARK   73  A    between atoms: _184  and  _186
REMARK   74  A    between atoms: _186  and  _187
REMARK   75  A    between atoms: _186  and  _189
REMARK   76  A    between atoms: _189  and  _190
REMARK   77  A    between atoms: _190  and  _191
REMARK   78  A    between atoms: _191  and  _192
REMARK   79  A    between atoms: _201  and  _203
REMARK   80  A    between atoms: _203  and  _204
REMARK   81  A    between atoms: _203  and  _206
REMARK   82  A    between atoms: _209  and  _211
REMARK   83  A    between atoms: _211  and  _212
REMARK   84  A    between atoms: _211  and  _214
REMARK   85  A    between atoms: _217  and  _219
REMARK   86  A    between atoms: _219  and  _220
REMARK   87  A    between atoms: _219  and  _222
REMARK   88  A    between atoms: _224  and  _226
REMARK   89  A    between atoms: _226  and  _227
REMARK   90  A    between atoms: _226  and  _229
REMARK   91  A    between atoms: _229  and  _230
REMARK   92  A    between atoms: _230  and  _231
REMARK   93  A    between atoms: _233  and  _235
REMARK   94  A    between atoms: _235  and  _236
REMARK   95  A    between atoms: _235  and  _238
REMARK   96  A    between atoms: _238  and  _239
REMARK   97  A    between atoms: _242  and  _244
REMARK   98  A    between atoms: _244  and  _245
REMARK   99  A    between atoms: _244  and  _247
REMARK  100  A    between atoms: _247  and  _248
REMARK  101  A    between atoms: _248  and  _249
REMARK  102  A    between atoms: _251  and  _253
REMARK  103  A    between atoms: _253  and  _254
REMARK  104  A    between atoms: _253  and  _256
REMARK  105  A    between atoms: _256  and  _257
REMARK  106  A    between atoms: _259  and  _261
REMARK  107  A    between atoms: _261  and  _262
REMARK  108  A    between atoms: _261  and  _264
REMARK  109  A    between atoms: _264  and  _265
REMARK  110  A    between atoms: _268  and  _270
REMARK  111  A    between atoms: _270  and  _271
REMARK  112  A    between atoms: _270  and  _273
REMARK  113  A    between atoms: _273  and  _274
REMARK  114  A    between atoms: _274  and  _275
REMARK  115  A    between atoms: _275  and  _276
REMARK  116  A    between atoms: _285  and  _287
REMARK  117  A    between atoms: _287  and  _288
REMARK  118  A    between atoms: _291  and  _293
REMARK  119  A    between atoms: _293  and  _294
REMARK  120  A    between atoms: _297  and  _299
REMARK  121  A    between atoms: _299  and  _300
REMARK  122  A    between atoms: _299  and  _302
REMARK  123  A    between atoms: _305  and  _307
REMARK  124  A    between atoms: _307  and  _308
REMARK  125  A    between atoms: _307  and  _310
REMARK  126  A    between atoms: _310  and  _311
REMARK  127  A    between atoms: _311  and  _312
REMARK  128  A    between atoms: _312  and  _313
REMARK  129  A    between atoms: _322  and  _324
REMARK  130  A    between atoms: _324  and  _325
REMARK  131  A    between atoms: _324  and  _327
REMARK  132  A    between atoms: _327  and  _328
REMARK  133  A    between atoms: _331  and  _333
REMARK  134  A    between atoms: _333  and  _334
REMARK  135  A    between atoms: _333  and  _336
REMARK  136  A    between atoms: _336  and  _337
REMARK  137  A    between atoms: _340  and  _342
REMARK  138  A    between atoms: _342  and  _343
REMARK  139  A    between atoms: _342  and  _345
REMARK  140  A    between atoms: _345  and  _346
REMARK  141  A    between atoms: _349  and  _351
REMARK  142  A    between atoms: _351  and  _352
REMARK  143  A    between atoms: _351  and  _354
REMARK  144  A    between atoms: _354  and  _355
REMARK  145  A    between atoms: _360  and  _362
REMARK  146  A    between atoms: _362  and  _363
REMARK  147  A    between atoms: _365  and  _367
REMARK  148  A    between atoms: _367  and  _368
REMARK  149  A    between atoms: _367  and  _370
REMARK  150  A    between atoms: _370  and  _371
REMARK  151  A    between atoms: _371  and  _372
REMARK  152  A    between atoms: _375  and  _377
REMARK  153  A    between atoms: _377  and  _378
REMARK  154  A    between atoms: _377  and  _380
REMARK  155  A    between atoms: _380  and  _381
REMARK  156  A    between atoms: _381  and  _382
REMARK  157  A    between atoms: _384  and  _386
REMARK  158  A    between atoms: _386  and  _387
REMARK  159  A    between atoms: _386  and  _389
REMARK  160  A    between atoms: _392  and  _394
REMARK  161  A    between atoms: _394  and  _395
REMARK  162  A    between atoms: _394  and  _397
REMARK  163  A    between atoms: _397  and  _398
REMARK  164  A    between atoms: _398  and  _399
REMARK  165  A    between atoms: _404  and  _406
REMARK  166  A    between atoms: _406  and  _407
REMARK  167  A    between atoms: _406  and  _409
REMARK  168  A    between atoms: _409  and  _410
REMARK  169  A    between atoms: _413  and  _415
REMARK  170  A    between atoms: _415  and  _416
REMARK  171  A    between atoms: _415  and  _418
REMARK  172  A    between atoms: _418  and  _419
REMARK  173  A    between atoms: _419  and  _420
REMARK  174  A    between atoms: _420  and  _421
REMARK  175  A    between atoms: _421  and  _422
REMARK  176  A    between atoms: _426  and  _428
REMARK  177  A    between atoms: _428  and  _429
REMARK  178  A    between atoms: _428  and  _431
REMARK  179  A    between atoms: _431  and  _432
REMARK  180  A    between atoms: _437  and  _439
REMARK  181  A    between atoms: _439  and  _440
REMARK  182  A    between atoms: _442  and  _444
REMARK  183  A    between atoms: _444  and  _445
REMARK  184  A    between atoms: _447  and  _449
REMARK  185  A    between atoms: _449  and  _450
REMARK  186  A    between atoms: _449  and  _452
REMARK  187  A    between atoms: _452  and  _453
REMARK  188  A    between atoms: _456  and  _458
REMARK  189  A    between atoms: _458  and  _459
REMARK  190  A    between atoms: _461  and  _463
REMARK  191  A    between atoms: _463  and  _464
REMARK  192  A    between atoms: _463  and  _466
REMARK  193  A    between atoms: _469  and  _471
REMARK  194  A    between atoms: _471  and  _472
REMARK  195  A    between atoms: _471  and  _474
REMARK  196  A    between atoms: _474  and  _475
REMARK  197  A    between atoms: _477  and  _479
REMARK  198  A    between atoms: _479  and  _480
REMARK  199  A    between atoms: _479  and  _482
REMARK  200  A    between atoms: _482  and  _483
REMARK  201  A    between atoms: _486  and  _488
REMARK  202  A    between atoms: _488  and  _489
REMARK  203  A    between atoms: _488  and  _491
REMARK  204  A    between atoms: _491  and  _492
REMARK  205  A    between atoms: _498  and  _500
REMARK  206  A    between atoms: _500  and  _501
REMARK  207  A    between atoms: _500  and  _503
REMARK  208  A    between atoms: _503  and  _504
REMARK  209  A    between atoms: _504  and  _505
REMARK  210  A    between atoms: _510  and  _512
REMARK  211  A    between atoms: _512  and  _513
REMARK  212  A    between atoms: _512  and  _515
REMARK  213  A    between atoms: _515  and  _516
REMARK  214  A    between atoms: _519  and  _521
REMARK  215  A    between atoms: _521  and  _522
REMARK  216  A    between atoms: _521  and  _524
REMARK  217  A    between atoms: _524  and  _525
REMARK  218  A    between atoms: _530  and  _532
REMARK  219  A    between atoms: _532  and  _533
REMARK  220  A    between atoms: _536  and  _538
REMARK  221  A    between atoms: _538  and  _539
REMARK  222  A    between atoms: _538  and  _541
REMARK  223  A    between atoms: _541  and  _542
REMARK  224  A    between atoms: _542  and  _543
REMARK  225  A    between atoms: _543  and  _544
REMARK  226  A    between atoms: _553  and  _555
REMARK  227  A    between atoms: _555  and  _556
REMARK  228  A    between atoms: _555  and  _558
REMARK  229  A    between atoms: _558  and  _559
REMARK  230  A    between atoms: _565  and  _567
REMARK  231  A    between atoms: _567  and  _568
REMARK  232  A    between atoms: _567  and  _570
REMARK  233  A    between atoms: _570  and  _571
REMARK  234  A    between atoms: _571  and  _572
REMARK  235  A    between atoms: _574  and  _576
REMARK  236  A    between atoms: _576  and  _577
REMARK  237  A    between atoms: _576  and  _579
REMARK  238  A    between atoms: _579  and  _580
REMARK  239  A    between atoms: _583  and  _585
REMARK  240  A    between atoms: _585  and  _586
REMARK  241  A    between atoms: _585  and  _588
REMARK  242  A    between atoms: _588  and  _589
REMARK  243  A    between atoms: _596  and  _597
REMARK  244  A    between atoms: _602  and  _604
REMARK  245  A    between atoms: _604  and  _605
REMARK  246  A    between atoms: _604  and  _607
REMARK  247  A    between atoms: _607  and  _608
REMARK  248  A    between atoms: _614  and  _616
REMARK  249  A    between atoms: _616  and  _617
REMARK  250  A    between atoms: _616  and  _619
REMARK  251  A    between atoms: _619  and  _620
REMARK                            x       y       z     vdW  Elec       q    Type
REMARK                         _______ _______ _______ _____ _____    ______ ____
ROOT
ATOM      1  C   CYS A   1      22.054  -0.843  -0.475  0.00  0.00    +0.239 C 
ATOM      2  O   CYS A   1      21.267  -0.543   0.423  0.00  0.00    -0.274 OA
ATOM      3  N   MET A   2      22.165  -0.139  -1.614  0.00  0.00    -0.298 N 
ATOM      4  H   MET A   2      22.877  -0.392  -2.329  0.00  0.00    +0.150 HD
ENDROOT
BRANCH   1   5
ATOM      5  CA  CYS A   1      23.033  -1.966  -0.248  0.00  0.00    +0.156 C 
BRANCH   5   6
ATOM      6  N   CYS A   1      22.905  -2.966  -1.286  0.00  0.00    -0.237 NA
ATOM      7  H   CYS A   1      23.746  -3.261  -1.822  0.00  0.00    +0.142 HD
ENDBRANCH   5   6
BRANCH   5   8
ATOM      8  CB  CYS A   1      24.491  -1.398  -0.100  0.00  0.00    +0.095 C 
ATOM      9  SG  CYS A   1      24.762  -0.575   1.493  0.00  0.00    -0.080 S 
ENDBRANCH   5   8
ENDBRANCH   1   5
BRANCH   3  10
ATOM     10  CA  MET A   2      21.260   0.993  -1.826  0.00  0.00    +0.138 C 
BRANCH  10  11
ATOM     11  C   MET A   2      19.758   0.579  -1.898  0.00  0.00    +0.227 C 
ATOM     12  O   MET A   2      18.917   1.398  -1.592  0.00  0.00    -0.286 OA
ENDBRANCH  10  11
BRANCH  10  13
ATOM     13  CB  MET A   2      21.589   1.779  -3.112  0.00  0.00    +0.039 C 
BRANCH  13  14
ATOM     14  CG  MET A   2      20.734   2.994  -3.238  0.00  0.00    +0.060 C 
BRANCH  14  15
ATOM     15  SD  MET A   2      20.841   4.160  -1.951  0.00  0.00    -0.139 S 
ATOM     16  CE  MET A   2      22.413   4.130  -1.500  0.00  0.00    +0.069 C 
ENDBRANCH  14  15
ENDBRANCH  13  14
ENDBRANCH  10  13
ENDBRANCH   3  10
TORSDOF 8
REMARK  Name = ../refined-set-2016/1n46/1n46_pocket.pdb
REMARK  251 active torsions:
REMARK  status: ('A' for Active; 'I' for Inactive)
REMARK    1  A    between atoms: _1  and  _3
REMARK    2  A    between atoms: _3  and  _4
REMARK    3  A    between atoms: _3  and  _6
REMARK    4  A    between atoms: _6  and  _7
REMARK    5  A    between atoms: _12  and  _14
REMARK    6  A    between atoms: _14  and  _15
REMARK    7  A    between atoms: _14  and  _17
REMARK    8  A    between atoms: _17  and  _18
REMARK    9  A    between atoms: _21  and  _23
REMARK   10  A    between atoms: _23  and  _24
REMARK   11  A    between atoms: _23  and  _26
REMARK   12  A    between atoms: _26  and  _27
REMARK   13  A    between atoms: _32  and  _34
REMARK   14  A    between atoms: _34  and  _35
REMARK   15  A    between atoms: _38  and  _40
REMARK   16  A    between atoms: _40  and  _41
REMARK   17  A    between atoms: _40  and  _43
REMARK   18  A    between atoms: _46  and  _48
REMARK   19  A    between atoms: _48  and  _49
REMARK   20  A    between atoms: _48  and  _51
REMARK   21  A    between atoms: _51  and  _52
REMARK   22  A    between atoms: _55  and  _57
REMARK   23  A    between atoms: _57  and  _58
REMARK   24  A    between atoms: _61  and  _63
REMARK   25  A    between atoms: _63  and  _64
REMARK   26  A    between atoms: _63  and  _66
REMARK   27  A    between atoms: _66  and  _67
REMARK   28  A    between atoms: _73  and  _75
REMARK   29  A    between atoms: _75  and  _76
REMARK   30  A    between atoms: _75  and  _78
REMARK   31  A    between atoms: _78  and  _79
REMARK   32  A    between atoms: _81  and  _83
REMARK   33  A    between atoms: _83  and  _84
REMARK   34  A    between atoms: _83  and  _86
REMARK   35  A    between atoms: _86  and  _87
REMARK   36  A    between atoms: _92  and  _94
REMARK   37  A    between atoms: _94  and  _95
REMARK   38  A    between atoms: _94  and  _97
REMARK   39  A    between atoms: _97  and  _98
REMARK   40  A    between atoms: _104  and  _106
REMARK   41  A    between atoms: _106  and  _107
REMARK   42  A    between atoms: _106  and  _109
REMARK   43  A    between atoms: _109  and  _110
REMARK   44  A    between atoms: _113  and  _115
REMARK   45  A    between atoms: _115  and  _116
REMARK   46  A    between atoms: _115  and  _118
REMARK   47  A    between atoms: _118  and  _119
REMARK   48  A    between atoms: _119  and  _120
REMARK   49  A    between atoms: _120  and  _121
REMARK   50  A    between atoms: _121  and  _122
REMARK   51  A    between atoms: _126  and  _128
REMARK   52  A    between atoms: _128  and  _129
REMARK   53  A    between atoms: _128  and  _131
REMARK   54  A    between atoms: _131  and  _132
REMARK   55  A    between atoms: _135  and  _137
REMARK   56  A    between atoms: _137  and  _138
REMARK   57  A    between atoms: _137  and  _140
REMARK   58  A    between atoms: _140  and  _141
REMARK   59  A    between atoms: _144  and  _146
REMARK   60  A    between atoms: _146  and  _147
REMARK   61  A    between atoms: _146  and  _149
REMARK   62  A    between atoms: _149  and  _150
REMARK   63  A    between atoms: _154  and  _155
REMARK   64  A    between atoms: _160  and  _162
REMARK   65  A    between atoms: _162  and  _163
REMARK   66  A    between atoms: _166  and  _168
REMARK   67  A    between atoms: _168  and  _169
REMARK   68  A    between atoms: _168  and  _171
REMARK   69  A    between atoms: _171  and  _172
REMARK   70  A    between atoms: _177  and  _178
REMARK   71  A    between atoms: _177  and  _180
REMARK   72  A    between atoms: _180  and  _181
REMARK   73  A    between atoms: _184  and  _186
REMARK   74  A    between atoms: _186  and  _187
REMARK   75  A    between atoms: _186  and  _189
REMARK   76  A    between atoms: _189  and  _190
REMARK   77  A    between atoms: _190  and  _191
REMARK   78  A    between atoms: _191  and  _192
REMARK   79  A    between atoms: _201  and  _203
REMARK   80  A    between atoms: _203  and  _204
REMARK   81  A    between atoms: _203  and  _206
REMARK   82  A    between atoms: _209  and  _211
REMARK   83  A    between atoms: _211  and  _212
REMARK   84  A    between atoms: _211  and  _214
REMARK   85  A    between atoms: _217  and  _219
REMARK   86  A    between atoms: _219  and  _220
REMARK   87  A    between atoms: _219  and  _222
REMARK   88  A    between atoms: _224  and  _226
REMARK   89  A    between atoms: _226  and  _227
REMARK   90  A    between atoms: _226  and  _229
REMARK   91  A    between atoms: _229  and  _230
REMARK   92  A    between atoms: _230  and  _231
REMARK   93  A    between atoms: _233  and  _235
REMARK   94  A    between atoms: _235  and  _236
REMARK   95  A    between atoms: _235  and  _238
REMARK   96  A    between atoms: _238  and  _239
REMARK   97  A    between atoms: _242  and  _244
REMARK   98  A    between atoms: _244  and  _245
REMARK   99  A    between atoms: _244  and  _247
REMARK  100  A    between atoms: _247  and  _248
REMARK  101  A    between atoms: _248  and  _249
REMARK  102  A    between atoms: _251  and  _253
REMARK  103  A    between atoms: _253  and  _254
REMARK  104  A    between atoms: _253  and  _256
REMARK  105  A    between atoms: _256  and  _257
REMARK  106  A    between atoms: _259  and  _261
REMARK  107  A    between atoms: _261  and  _262
REMARK  108  A    between atoms: _261  and  _264
REMARK  109  A    between atoms: _264  and  _265
REMARK  110  A    between atoms: _268  and  _270
REMARK  111  A    between atoms: _270  and  _271
REMARK  112  A    between atoms: _270  and  _273
REMARK  113  A    between atoms: _273  and  _274
REMARK  114  A    between atoms: _274  and  _275
REMARK  115  A    between atoms: _275  and  _276
REMARK  116  A    between atoms: _285  and  _287
REMARK  117  A    between atoms: _287  and  _288
REMARK  118  A    between atoms: _291  and  _293
REMARK  119  A    between atoms: _293  and  _294
REMARK  120  A    between atoms: _297  and  _299
REMARK  121  A    between atoms: _299  and  _300
REMARK  122  A    between atoms: _299  and  _302
REMARK  123  A    between atoms: _305  and  _307
REMARK  124  A    between atoms: _307  and  _308
REMARK  125  A    between atoms: _307  and  _310
REMARK  126  A    between atoms: _310  and  _311
REMARK  127  A    between atoms: _311  and  _312
REMARK  128  A    between atoms: _312  and  _313
REMARK  129  A    between atoms: _322  and  _324
REMARK  130  A    between atoms: _324  and  _325
REMARK  131  A    between atoms: _324  and  _327
REMARK  132  A    between atoms: _327  and  _328
REMARK  133  A    between atoms: _331  and  _333
REMARK  134  A    between atoms: _333  and  _334
REMARK  135  A    between atoms: _333  and  _336
REMARK  136  A    between atoms: _336  and  _337
REMARK  137  A    between atoms: _340  and  _342
REMARK  138  A    between atoms: _342  and  _343
REMARK  139  A    between atoms: _342  and  _345
REMARK  140  A    between atoms: _345  and  _346
REMARK  141  A    between atoms: _349  and  _351
REMARK  142  A    between atoms: _351  and  _352
REMARK  143  A    between atoms: _351  and  _354
REMARK  144  A    between atoms: _354  and  _355
REMARK  145  A    between atoms: _360  and  _362
REMARK  146  A    between atoms: _362  and  _363
REMARK  147  A    between atoms: _365  and  _367
REMARK  148  A    between atoms: _367  and  _368
REMARK  149  A    between atoms: _367  and  _370
REMARK  150  A    between atoms: _370  and  _371
REMARK  151  A    between atoms: _371  and  _372
REMARK  152  A    between atoms: _375  and  _377
REMARK  153  A    between atoms: _377  and  _378
REMARK  154  A    between atoms: _377  and  _380
REMARK  155  A    between atoms: _380  and  _381
REMARK  156  A    between atoms: _381  and  _382
REMARK  157  A    between atoms: _384  and  _386
REMARK  158  A    between atoms: _386  and  _387
REMARK  159  A    between atoms: _386  and  _389
REMARK  160  A    between atoms: _392  and  _394
REMARK  161  A    between atoms: _394  and  _395
REMARK  162  A    between atoms: _394  and  _397
REMARK  163  A    between atoms: _397  and  _398
REMARK  164  A    between atoms: _398  and  _399
REMARK  165  A    between atoms: _404  and  _406
REMARK  166  A    between atoms: _406  and  _407
REMARK  167  A    between atoms: _406  and  _409
REMARK  168  A    between atoms: _409  and  _410
REMARK  169  A    between atoms: _413  and  _415
REMARK  170  A    between atoms: _415  and  _416
REMARK  171  A    between atoms: _415  and  _418
REMARK  172  A    between atoms: _418  and  _419
REMARK  173  A    between atoms: _419  and  _420
REMARK  174  A    between atoms: _420  and  _421
REMARK  175  A    between atoms: _421  and  _422
REMARK  176  A    between atoms: _426  and  _428
REMARK  177  A    between atoms: _428  and  _429
REMARK  178  A    between atoms: _428  and  _431
REMARK  179  A    between atoms: _431  and  _432
REMARK  180  A    between atoms: _437  and  _439
REMARK  181  A    between atoms: _439  and  _440
REMARK  182  A    between atoms: _442  and  _444
REMARK  183  A    between atoms: _444  and  _445
REMARK  184  A    between atoms: _447  and  _449
REMARK  185  A    between atoms: _449  and  _450
REMARK  186  A    between atoms: _449  and  _452
REMARK  187  A    between atoms: _452  and  _453
REMARK  188  A    between atoms: _456  and  _458
REMARK  189  A    between atoms: _458  and  _459
REMARK  190  A    between atoms: _461  and  _463
REMARK  191  A    between atoms: _463  and  _464
REMARK  192  A    between atoms: _463  and  _466
REMARK  193  A    between atoms: _469  and  _471
REMARK  194  A    between atoms: _471  and  _472
REMARK  195  A    between atoms: _471  and  _474
REMARK  196  A    between atoms: _474  and  _475
REMARK  197  A    between atoms: _477  and  _479
REMARK  198  A    between atoms: _479  and  _480
REMARK  199  A    between atoms: _479  and  _482
REMARK  200  A    between atoms: _482  and  _483
REMARK  201  A    between atoms: _486  and  _488
REMARK  202  A    between atoms: _488  and  _489
REMARK  203  A    between atoms: _488  and  _491
REMARK  204  A    between atoms: _491  and  _492
REMARK  205  A    between atoms: _498  and  _500
REMARK  206  A    between atoms: _500  and  _501
REMARK  207  A    between atoms: _500  and  _503
REMARK  208  A    between atoms: _503  and  _504
REMARK  209  A    between atoms: _504  and  _505
REMARK  210  A    between atoms: _510  and  _512
REMARK  211  A    between atoms: _512  and  _513
REMARK  212  A    between atoms: _512  and  _515
REMARK  213  A    between atoms: _515  and  _516
REMARK  214  A    between atoms: _519  and  _521
REMARK  215  A    between atoms: _521  and  _522
REMARK  216  A    between atoms: _521  and  _524
REMARK  217  A    between atoms: _524  and  _525
REMARK  218  A    between atoms: _530  and  _532
REMARK  219  A    between atoms: _532  and  _533
REMARK  220  A    between atoms: _536  and  _538
REMARK  221  A    between atoms: _538  and  _539
REMARK  222  A    between atoms: _538  and  _541
REMARK  223  A    between atoms: _541  and  _542
REMARK  224  A    between atoms: _542  and  _543
REMARK  225  A    between atoms: _543  and  _544
REMARK  226  A    between atoms: _553  and  _555
REMARK  227  A    between atoms: _555  and  _556
REMARK  228  A    between atoms: _555  and  _558
REMARK  229  A    between atoms: _558  and  _559
REMARK  230  A    between atoms: _565  and  _567
REMARK  231  A    between atoms: _567  and  _568
REMARK  232  A    between atoms: _567  and  _570
REMARK  233  A    between atoms: _570  and  _571
REMARK  234  A    between atoms: _571  and  _572
REMARK  235  A    between atoms: _574  and  _576
REMARK  236  A    between atoms: _576  and  _577
REMARK  237  A    between atoms: _576  and  _579
REMARK  238  A    between atoms: _579  and  _580
REMARK  239  A    between atoms: _583  and  _585
REMARK  240  A    between atoms: _585  and  _586
REMARK  241  A    between atoms: _585  and  _588
REMARK  242  A    between atoms: _588  and  _589
REMARK  243  A    between atoms: _596  and  _597
REMARK  244  A    between atoms: _602  and  _604
REMARK  245  A    between atoms: _604  and  _605
REMARK  246  A    between atoms: _604  and  _607
REMARK  247  A    between atoms: _607  and  _608
REMARK  248  A    between atoms: _614  and  _616
REMARK  249  A    between atoms: _616  and  _617
REMARK  250  A    between atoms: _616  and  _619
REMARK  251  A    between atoms: _619  and  _620
REMARK                            x       y       z     vdW  Elec       q    Type
REMARK                         _______ _______ _______ _____ _____    ______ ____
ROOT
ATOM      1  CA  ARG A   5      13.993   1.487   4.769  0.00  0.00    +0.149 C 
ENDROOT
BRANCH   1   2
ATOM      2  C   ARG A   5      13.578   2.951   4.879  0.00  0.00    +0.241 C 
ATOM      3  O   ARG A   5      12.619   3.327   5.633  0.00  0.00    -0.273 OA
ATOM      4  N   ALA A   6      14.252   3.793   4.110  0.00  0.00    -0.297 N 
ATOM      5  H   ALA A   6      14.991   3.449   3.465  0.00  0.00    +0.150 HD
BRANCH   4   6
ATOM      6  CA  ALA A   6      13.940   5.180   4.188  0.00  0.00    +0.149 C 
ATOM      7  CB  ALA A   6      14.919   6.010   3.411  0.00  0.00    +0.031 C 
BRANCH   6   8
ATOM      8  C   ALA A   6      12.496   5.352   3.723  0.00  0.00    +0.241 C 
ATOM      9  O   ALA A   6      11.754   6.109   4.312  0.00  0.00    -0.273 OA
ATOM     10  N   ALA A   7      12.081   4.652   2.664  0.00  0.00    -0.297 N 
ATOM     11  H   ALA A   7      12.724   3.951   2.244  0.00  0.00    +0.150 HD
BRANCH  10  12
ATOM     12  CA  ALA A   7      10.773   4.834   2.082  0.00  0.00    +0.149 C 
ATOM     13  CB  ALA A   7      10.669   4.007   0.838  0.00  0.00    +0.031 C 
BRANCH  12  14
ATOM     14  C   ALA A   7       9.706   4.370   3.096  0.00  0.00    +0.241 C 
ATOM     15  N   VAL A   8       9.895   3.269   3.783  0.00  0.00    -0.297 N 
ATOM     16  H   VAL A   8      10.711   2.652   3.595  0.00  0.00    +0.150 HD
ATOM     17  O   ALA A   7       8.697   5.034   3.272  0.00  0.00    -0.273 OA
BRANCH  15  18
ATOM     18  CA  VAL A   8       8.935   2.942   4.806  0.00  0.00    +0.149 C 
BRANCH  18  19
ATOM     19  C   VAL A   8       8.884   3.957   5.962  0.00  0.00    +0.241 C 
ATOM     20  O   VAL A   8       7.872   4.020   6.621  0.00  0.00    -0.273 OA
ATOM     21  N   ARG A   9       9.901   4.790   6.173  0.00  0.00    -0.298 N 
ATOM     22  H   ARG A   9      10.793   4.671   5.652  0.00  0.00    +0.150 HD
BRANCH  21  23
ATOM     23  CA  ARG A   9       9.756   5.844   7.118  0.00  0.00    +0.137 C 
BRANCH  23  24
ATOM     24  C   ARG A   9       9.137   7.133   6.507  0.00  0.00    +0.227 C 
ATOM     25  O   ARG A   9       9.344   8.181   7.017  0.00  0.00    -0.286 OA
ENDBRANCH  23  24
BRANCH  23  26
ATOM     26  CB  ARG A   9      11.083   6.129   7.789  0.00  0.00    +0.031 C 
BRANCH  26  27
ATOM     27  CG  ARG A   9      11.576   4.931   8.610  0.00  0.00    +0.045 C 
BRANCH  27  28
ATOM     28  CD  ARG A   9      12.784   5.251   9.418  0.00  0.00    +0.174 C 
BRANCH  28  29
ATOM     29  NE  ARG A   9      13.732   4.185   9.487  0.00  0.00    -0.265 N 
ATOM     30  HE  ARG A   9      13.539   3.442  10.189  0.00  0.00    +0.259 HD
ATOM     31  CZ  ARG A   9      14.833   4.033   8.757  0.00  0.00    +0.342 C 
ATOM     32  NH2 ARG A   9      15.552   2.986   9.044  0.00  0.00    -0.292 N 
ATOM     33 HH21 ARG A   9      15.250   2.339   9.800  0.00  0.00    +0.255 HD
ATOM     34 HH22 ARG A   9      16.429   2.797   8.517  0.00  0.00    +0.255 HD
ATOM     35  NH1 ARG A   9      15.210   4.885   7.761  0.00  0.00    -0.292 N 
ATOM     36 HH11 ARG A   9      14.622   5.713   7.535  0.00  0.00    +0.255 HD
ATOM     37 HH12 ARG A   9      16.085   4.707   7.228  0.00  0.00    +0.255 HD
ENDBRANCH  28  29
ENDBRANCH  27  28
ENDBRANCH  26  27
ENDBRANCH  23  26
ENDBRANCH  21  23
ENDBRANCH  18  19
BRANCH  18  38
ATOM     38  CB  VAL A   8       8.906   1.466   5.342  0.00  0.00    +0.027 C 
ATOM     39  CG2 VAL A   8       9.818   1.273   6.551  0.00  0.00    +0.002 C 
ATOM     40  CG1 VAL A   8       9.075   0.450   4.282  0.00  0.00    +0.002 C 
ENDBRANCH  18  38
ENDBRANCH  15  18
ENDBRANCH  12  14
ENDBRANCH  10  12
ENDBRANCH   6   8
ENDBRANCH   4   6
ENDBRANCH   1   2
BRANCH   1  42
ATOM     41  C   LEU A   4      13.158   1.116   2.529  0.00  0.00    +0.241 C 
ATOM     42  N   ARG A   5      14.146   1.002   3.401  0.00  0.00    -0.297 N 
ATOM     43  H   ARG A   5      15.042   0.562   3.109  0.00  0.00    +0.150 HD
ATOM     44  O   LEU A   4      12.093   1.634   2.812  0.00  0.00    -0.273 OA
BRANCH  41  45
ATOM     45  CA  LEU A   4      13.384   0.561   1.144  0.00  0.00    +0.149 C 
BRANCH  45  48
ATOM     46  C   SER A   3      14.707   2.516   0.498  0.00  0.00    +0.243 C 
ATOM     47  O   SER A   3      13.808   3.326   0.750  0.00  0.00    -0.273 OA
ATOM     48  N   LEU A   4      14.594   1.224   0.657  0.00  0.00    -0.297 N 
ATOM     49  H   LEU A   4      15.415   0.630   0.423  0.00  0.00    +0.150 HD
BRANCH  46  50
ATOM     50  CA  SER A   3      16.072   2.961   0.016  0.00  0.00    +0.178 C 
BRANCH  50  53
ATOM     51  C   MET A   2      17.464   2.241   1.921  0.00  0.00    +0.241 C 
ATOM     52  O   MET A   2      16.838   2.883   2.705  0.00  0.00    -0.273 OA
ATOM     53  N   SER A   3      17.135   2.148   0.628  0.00  0.00    -0.295 N 
ATOM     54  H   SER A   3      17.652   1.473   0.030  0.00  0.00    +0.150 HD
BRANCH  51  55
ATOM     55  CA  MET A   2      18.723   1.518   2.407  0.00  0.00    +0.149 C 
BRANCH  55  58
ATOM     56  C   ILE A   1      17.714  -0.579   1.923  0.00  0.00    +0.238 C 
ATOM     57  O   ILE A   1      16.731  -0.245   2.561  0.00  0.00    -0.274 OA
ATOM     58  N   MET A   2      18.780   0.211   1.816  0.00  0.00    -0.297 N 
ATOM     59  H   MET A   2      19.633  -0.111   1.316  0.00  0.00    +0.150 HD
BRANCH  56  60
ATOM     60  CA  ILE A   1      17.741  -1.923   1.240  0.00  0.00    +0.145 C 
BRANCH  60  61
ATOM     61  N   ILE A   1      18.275  -1.762  -0.115  0.00  0.00    -0.238 NA
ATOM     62  H   ILE A   1      19.259  -2.029  -0.319  0.00  0.00    +0.142 HD
ENDBRANCH  60  61
BRANCH  60  63
ATOM     63  CB  ILE A   1      18.526  -2.950   2.061  0.00  0.00    +0.025 C 
ATOM     64  CG2 ILE A   1      18.045  -2.995   3.453  0.00  0.00    +0.002 C 
BRANCH  63  65
ATOM     65  CG1 ILE A   1      18.334  -4.358   1.478  0.00  0.00    +0.002 C 
ATOM     66  CD1 ILE A   1      19.216  -5.478   2.079  0.00  0.00    +0.000 C 
ENDBRANCH  63  65
ENDBRANCH  60  63
ENDBRANCH  56  60
ENDBRANCH  55  58
BRANCH  55  67
ATOM     67  CB  MET A   2      19.937   2.374   2.078  0.00  0.00    +0.041 C 
BRANCH  67  68
ATOM     68  CG  MET A   2      21.184   1.943   2.762  0.00  0.00    +0.060 C 
BRANCH  68  69
ATOM     69  SD  MET A   2      22.591   2.808   2.055  0.00  0.00    -0.139 S 
ATOM     70  CE  MET A   2      22.829   2.085   0.884  0.00  0.00    +0.069 C 
ENDBRANCH  68  69
ENDBRANCH  67  68
ENDBRANCH  55  67
ENDBRANCH  51  55
ENDBRANCH  50  53
BRANCH  50  71
ATOM     71  CB  SER A   3      16.155   2.940  -1.525  0.00  0.00    +0.166 C 
BRANCH  71  72
ATOM     72  OG  SER A   3      17.353   3.554  -1.987  0.00  0.00    -0.380 OA
ATOM     73  H   SER A   3      18.134   3.067  -1.622  0.00  0.00    +0.211 HD
ENDBRANCH  71  72
ENDBRANCH  50  71
ENDBRANCH  46  50
ENDBRANCH  45  48
BRANCH  45  74
ATOM     74  CB  LEU A   4      13.551  -0.973   1.170  0.00  0.00    +0.029 C 
BRANCH  74  75
ATOM     75  CG  LEU A   4      12.393  -1.737   1.867  0.00  0.00    +0.002 C 
ATOM     76  CD2 LEU A   4      12.585  -3.161   1.731  0.00  0.00    +0.000 C 
ATOM     77  CD1 LEU A   4      10.987  -1.319   1.333  0.00  0.00    +0.000 C 
ENDBRANCH  74  75
ENDBRANCH  45  74
ENDBRANCH  41  45
ENDBRANCH   1  42
BRANCH   1  78
ATOM     78  CB  ARG A   5      15.230   1.213   5.578  0.00  0.00    +0.033 C 
BRANCH  78  79
ATOM     79  CG  ARG A   5      15.395  -0.199   6.007  0.00  0.00    +0.045 C 
BRANCH  79  80
ATOM     80  CD  ARG A   5      16.737  -0.443   6.661  0.00  0.00    +0.174 C 
BRANCH  80  81
ATOM     81  NE  ARG A   5      16.840  -1.730   7.321  0.00  0.00    -0.265 N 
ATOM     82  CZ  ARG A   5      17.686  -2.053   8.297  0.00  0.00    +0.342 C 
ATOM     83  NH2 ARG A   5      18.538  -1.169   8.817  0.00  0.00    -0.292 N 
ATOM     84 HH21 ARG A   5      19.185  -1.456   9.579  0.00  0.00    +0.255 HD
ATOM     85 HH22 ARG A   5      18.556  -0.192   8.461  0.00  0.00    +0.255 HD
ATOM     86  NH1 ARG A   5      17.637  -3.278   8.793  0.00  0.00    -0.292 N 
ATOM     87 HH11 ARG A   5      18.287  -3.556   9.556  0.00  0.00    +0.255 HD
ATOM     88 HH12 ARG A   5      16.949  -3.963   8.420  0.00  0.00    +0.255 HD
ATOM     89  HE  ARG A   5      16.189  -2.474   7.000  0.00  0.00    +0.259 HD
ENDBRANCH  80  81
ENDBRANCH  79  80
ENDBRANCH  78  79
ENDBRANCH   1  78
TORSDOF 36
REMARK  Name = ../refined-set-2016/1n46/1n46_pocket.pdb
REMARK  251 active torsions:
REMARK  status: ('A' for Active; 'I' for Inactive)
REMARK    1  A    between atoms: _1  and  _3
REMARK    2  A    between atoms: _3  and  _4
REMARK    3  A    between atoms: _3  and  _6
REMARK    4  A    between atoms: _6  and  _7
REMARK    5  A    between atoms: _12  and  _14
REMARK    6  A    between atoms: _14  and  _15
REMARK    7  A    between atoms: _14  and  _17
REMARK    8  A    between atoms: _17  and  _18
REMARK    9  A    between atoms: _21  and  _23
REMARK   10  A    between atoms: _23  and  _24
REMARK   11  A    between atoms: _23  and  _26
REMARK   12  A    between atoms: _26  and  _27
REMARK   13  A    between atoms: _32  and  _34
REMARK   14  A    between atoms: _34  and  _35
REMARK   15  A    between atoms: _38  and  _40
REMARK   16  A    between atoms: _40  and  _41
REMARK   17  A    between atoms: _40  and  _43
REMARK   18  A    between atoms: _46  and  _48
REMARK   19  A    between atoms: _48  and  _49
REMARK   20  A    between atoms: _48  and  _51
REMARK   21  A    between atoms: _51  and  _52
REMARK   22  A    between atoms: _55  and  _57
REMARK   23  A    between atoms: _57  and  _58
REMARK   24  A    between atoms: _61  and  _63
REMARK   25  A    between atoms: _63  and  _64
REMARK   26  A    between atoms: _63  and  _66
REMARK   27  A    between atoms: _66  and  _67
REMARK   28  A    between atoms: _73  and  _75
REMARK   29  A    between atoms: _75  and  _76
REMARK   30  A    between atoms: _75  and  _78
REMARK   31  A    between atoms: _78  and  _79
REMARK   32  A    between atoms: _81  and  _83
REMARK   33  A    between atoms: _83  and  _84
REMARK   34  A    between atoms: _83  and  _86
REMARK   35  A    between atoms: _86  and  _87
REMARK   36  A    between atoms: _92  and  _94
REMARK   37  A    between atoms: _94  and  _95
REMARK   38  A    between atoms: _94  and  _97
REMARK   39  A    between atoms: _97  and  _98
REMARK   40  A    between atoms: _104  and  _106
REMARK   41  A    between atoms: _106  and  _107
REMARK   42  A    between atoms: _106  and  _109
REMARK   43  A    between atoms: _109  and  _110
REMARK   44  A    between atoms: _113  and  _115
REMARK   45  A    between atoms: _115  and  _116
REMARK   46  A    between atoms: _115  and  _118
REMARK   47  A    between atoms: _118  and  _119
REMARK   48  A    between atoms: _119  and  _120
REMARK   49  A    between atoms: _120  and  _121
REMARK   50  A    between atoms: _121  and  _122
REMARK   51  A    between atoms: _126  and  _128
REMARK   52  A    between atoms: _128  and  _129
REMARK   53  A    between atoms: _128  and  _131
REMARK   54  A    between atoms: _131  and  _132
REMARK   55  A    between atoms: _135  and  _137
REMARK   56  A    between atoms: _137  and  _138
REMARK   57  A    between atoms: _137  and  _140
REMARK   58  A    between atoms: _140  and  _141
REMARK   59  A    between atoms: _144  and  _146
REMARK   60  A    between atoms: _146  and  _147
REMARK   61  A    between atoms: _146  and  _149
REMARK   62  A    between atoms: _149  and  _150
REMARK   63  A    between atoms: _154  and  _155
REMARK   64  A    between atoms: _160  and  _162
REMARK   65  A    between atoms: _162  and  _163
REMARK   66  A    between atoms: _166  and  _168
REMARK   67  A    between atoms: _168  and  _169
REMARK   68  A    between atoms: _168  and  _171
REMARK   69  A    between atoms: _171  and  _172
REMARK   70  A    between atoms: _177  and  _178
REMARK   71  A    between atoms: _177  and  _180
REMARK   72  A    between atoms: _180  and  _181
REMARK   73  A    between atoms: _184  and  _186
REMARK   74  A    between atoms: _186  and  _187
REMARK   75  A    between atoms: _186  and  _189
REMARK   76  A    between atoms: _189  and  _190
REMARK   77  A    between atoms: _190  and  _191
REMARK   78  A    between atoms: _191  and  _192
REMARK   79  A    between atoms: _201  and  _203
REMARK   80  A    between atoms: _203  and  _204
REMARK   81  A    between atoms: _203  and  _206
REMARK   82  A    between atoms: _209  and  _211
REMARK   83  A    between atoms: _211  and  _212
REMARK   84  A    between atoms: _211  and  _214
REMARK   85  A    between atoms: _217  and  _219
REMARK   86  A    between atoms: _219  and  _220
REMARK   87  A    between atoms: _219  and  _222
REMARK   88  A    between atoms: _224  and  _226
REMARK   89  A    between atoms: _226  and  _227
REMARK   90  A    between atoms: _226  and  _229
REMARK   91  A    between atoms: _229  and  _230
REMARK   92  A    between atoms: _230  and  _231
REMARK   93  A    between atoms: _233  and  _235
REMARK   94  A    between atoms: _235  and  _236
REMARK   95  A    between atoms: _235  and  _238
REMARK   96  A    between atoms: _238  and  _239
REMARK   97  A    between atoms: _242  and  _244
REMARK   98  A    between atoms: _244  and  _245
REMARK   99  A    between atoms: _244  and  _247
REMARK  100  A    between atoms: _247  and  _248
REMARK  101  A    between atoms: _248  and  _249
REMARK  102  A    between atoms: _251  and  _253
REMARK  103  A    between atoms: _253  and  _254
REMARK  104  A    between atoms: _253  and  _256
REMARK  105  A    between atoms: _256  and  _257
REMARK  106  A    between atoms: _259  and  _261
REMARK  107  A    between atoms: _261  and  _262
REMARK  108  A    between atoms: _261  and  _264
REMARK  109  A    between atoms: _264  and  _265
REMARK  110  A    between atoms: _268  and  _270
REMARK  111  A    between atoms: _270  and  _271
REMARK  112  A    between atoms: _270  and  _273
REMARK  113  A    between atoms: _273  and  _274
REMARK  114  A    between atoms: _274  and  _275
REMARK  115  A    between atoms: _275  and  _276
REMARK  116  A    between atoms: _285  and  _287
REMARK  117  A    between atoms: _287  and  _288
REMARK  118  A    between atoms: _291  and  _293
REMARK  119  A    between atoms: _293  and  _294
REMARK  120  A    between atoms: _297  and  _299
REMARK  121  A    between atoms: _299  and  _300
REMARK  122  A    between atoms: _299  and  _302
REMARK  123  A    between atoms: _305  and  _307
REMARK  124  A    between atoms: _307  and  _308
REMARK  125  A    between atoms: _307  and  _310
REMARK  126  A    between atoms: _310  and  _311
REMARK  127  A    between atoms: _311  and  _312
REMARK  128  A    between atoms: _312  and  _313
REMARK  129  A    between atoms: _322  and  _324
REMARK  130  A    between atoms: _324  and  _325
REMARK  131  A    between atoms: _324  and  _327
REMARK  132  A    between atoms: _327  and  _328
REMARK  133  A    between atoms: _331  and  _333
REMARK  134  A    between atoms: _333  and  _334
REMARK  135  A    between atoms: _333  and  _336
REMARK  136  A    between atoms: _336  and  _337
REMARK  137  A    between atoms: _340  and  _342
REMARK  138  A    between atoms: _342  and  _343
REMARK  139  A    between atoms: _342  and  _345
REMARK  140  A    between atoms: _345  and  _346
REMARK  141  A    between atoms: _349  and  _351
REMARK  142  A    between atoms: _351  and  _352
REMARK  143  A    between atoms: _351  and  _354
REMARK  144  A    between atoms: _354  and  _355
REMARK  145  A    between atoms: _360  and  _362
REMARK  146  A    between atoms: _362  and  _363
REMARK  147  A    between atoms: _365  and  _367
REMARK  148  A    between atoms: _367  and  _368
REMARK  149  A    between atoms: _367  and  _370
REMARK  150  A    between atoms: _370  and  _371
REMARK  151  A    between atoms: _371  and  _372
REMARK  152  A    between atoms: _375  and  _377
REMARK  153  A    between atoms: _377  and  _378
REMARK  154  A    between atoms: _377  and  _380
REMARK  155  A    between atoms: _380  and  _381
REMARK  156  A    between atoms: _381  and  _382
REMARK  157  A    between atoms: _384  and  _386
REMARK  158  A    between atoms: _386  and  _387
REMARK  159  A    between atoms: _386  and  _389
REMARK  160  A    between atoms: _392  and  _394
REMARK  161  A    between atoms: _394  and  _395
REMARK  162  A    between atoms: _394  and  _397
REMARK  163  A    between atoms: _397  and  _398
REMARK  164  A    between atoms: _398  and  _399
REMARK  165  A    between atoms: _404  and  _406
REMARK  166  A    between atoms: _406  and  _407
REMARK  167  A    between atoms: _406  and  _409
REMARK  168  A    between atoms: _409  and  _410
REMARK  169  A    between atoms: _413  and  _415
REMARK  170  A    between atoms: _415  and  _416
REMARK  171  A    between atoms: _415  and  _418
REMARK  172  A    between atoms: _418  and  _419
REMARK  173  A    between atoms: _419  and  _420
REMARK  174  A    between atoms: _420  and  _421
REMARK  175  A    between atoms: _421  and  _422
REMARK  176  A    between atoms: _426  and  _428
REMARK  177  A    between atoms: _428  and  _429
REMARK  178  A    between atoms: _428  and  _431
REMARK  179  A    between atoms: _431  and  _432
REMARK  180  A    between atoms: _437  and  _439
REMARK  181  A    between atoms: _439  and  _440
REMARK  182  A    between atoms: _442  and  _444
REMARK  183  A    between atoms: _444  and  _445
REMARK  184  A    between atoms: _447  and  _449
REMARK  185  A    between atoms: _449  and  _450
REMARK  186  A    between atoms: _449  and  _452
REMARK  187  A    between atoms: _452  and  _453
REMARK  188  A    between atoms: _456  and  _458
REMARK  189  A    between atoms: _458  and  _459
REMARK  190  A    between atoms: _461  and  _463
REMARK  191  A    between atoms: _463  and  _464
REMARK  192  A    between atoms: _463  and  _466
REMARK  193  A    between atoms: _469  and  _471
REMARK  194  A    between atoms: _471  and  _472
REMARK  195  A    between atoms: _471  and  _474
REMARK  196  A    between atoms: _474  and  _475
REMARK  197  A    between atoms: _477  and  _479
REMARK  198  A    between atoms: _479  and  _480
REMARK  199  A    between atoms: _479  and  _482
REMARK  200  A    between atoms: _482  and  _483
REMARK  201  A    between atoms: _486  and  _488
REMARK  202  A    between atoms: _488  and  _489
REMARK  203  A    between atoms: _488  and  _491
REMARK  204  A    between atoms: _491  and  _492
REMARK  205  A    between atoms: _498  and  _500
REMARK  206  A    between atoms: _500  and  _501
REMARK  207  A    between atoms: _500  and  _503
REMARK  208  A    between atoms: _503  and  _504
REMARK  209  A    between atoms: _504  and  _505
REMARK  210  A    between atoms: _510  and  _512
REMARK  211  A    between atoms: _512  and  _513
REMARK  212  A    between atoms: _512  and  _515
REMARK  213  A    between atoms: _515  and  _516
REMARK  214  A    between atoms: _519  and  _521
REMARK  215  A    between atoms: _521  and  _522
REMARK  216  A    between atoms: _521  and  _524
REMARK  217  A    between atoms: _524  and  _525
REMARK  218  A    between atoms: _530  and  _532
REMARK  219  A    between atoms: _532  and  _533
REMARK  220  A    between atoms: _536  and  _538
REMARK  221  A    between atoms: _538  and  _539
REMARK  222  A    between atoms: _538  and  _541
REMARK  223  A    between atoms: _541  and  _542
REMARK  224  A    between atoms: _542  and  _543
REMARK  225  A    between atoms: _543  and  _544
REMARK  226  A    between atoms: _553  and  _555
REMARK  227  A    between atoms: _555  and  _556
REMARK  228  A    between atoms: _555  and  _558
REMARK  229  A    between atoms: _558  and  _559
REMARK  230  A    between atoms: _565  and  _567
REMARK  231  A    between atoms: _567  and  _568
REMARK  232  A    between atoms: _567  and  _570
REMARK  233  A    between atoms: _570  and  _571
REMARK  234  A    between atoms: _571  and  _572
REMARK  235  A    between atoms: _574  and  _576
REMARK  236  A    between atoms: _576  and  _577
REMARK  237  A    between atoms: _576  and  _579
REMARK  238  A    between atoms: _579  and  _580
REMARK  239  A    between atoms: _583  and  _585
REMARK  240  A    between atoms: _585  and  _586
REMARK  241  A    between atoms: _585  and  _588
REMARK  242  A    between atoms: _588  and  _589
REMARK  243  A    between atoms: _596  and  _597
REMARK  244  A    between atoms: _602  and  _604
REMARK  245  A    between atoms: _604  and  _605
REMARK  246  A    between atoms: _604  and  _607
REMARK  247  A    between atoms: _607  and  _608
REMARK  248  A    between atoms: _614  and  _616
REMARK  249  A    between atoms: _616  and  _617
REMARK  250  A    between atoms: _616  and  _619
REMARK  251  A    between atoms: _619  and  _620
REMARK                            x       y       z     vdW  Elec       q    Type
REMARK                         _______ _______ _______ _____ _____    ______ ____
ROOT
ATOM      1  CA  ASN A   4      18.438   6.072   9.850  0.00  0.00    +0.158 C 
ENDROOT
BRANCH   1   2
ATOM      2  C   ASN A   4      17.513   6.054  11.068  0.00  0.00    +0.241 C 
ATOM      3  O   ASN A   4      17.953   5.721  12.185  0.00  0.00    -0.273 OA
ATOM      4  N   GLY A   5      16.244   6.396  10.857  0.00  0.00    -0.295 N 
ATOM      5  H   GLY A   5      15.884   6.479   9.885  0.00  0.00    +0.150 HD
BRANCH   4   6
ATOM      6  CA  GLY A   5      15.361   6.654  11.980  0.00  0.00    +0.176 C 
BRANCH   6   7
ATOM      7  C   GLY A   5      15.713   7.900  12.789  0.00  0.00    +0.243 C 
ATOM      8  O   GLY A   5      15.088   8.074  13.826  0.00  0.00    -0.273 OA
ATOM      9  N   GLU A   6      16.635   8.759  12.315  0.00  0.00    -0.297 N 
ATOM     10  H   GLU A   6      17.048   8.563  11.381  0.00  0.00    +0.150 HD
BRANCH   9  11
ATOM     11  CA  GLU A   6      17.098   9.964  13.039  0.00  0.00    +0.149 C 
BRANCH  11  12
ATOM     12  C   GLU A   6      17.033  11.309  12.332  0.00  0.00    +0.241 C 
ATOM     13  O   GLU A   6      16.982  12.335  13.007  0.00  0.00    -0.273 OA
ATOM     14  N   MET A   7      17.149  11.329  11.006  0.00  0.00    -0.298 N 
ATOM     15  H   MET A   7      17.177  10.437  10.473  0.00  0.00    +0.150 HD
BRANCH  14  16
ATOM     16  CA  MET A   7      17.237  12.599  10.304  0.00  0.00    +0.138 C 
BRANCH  16  17
ATOM     17  C   MET A   7      16.146  12.706   9.278  0.00  0.00    +0.227 C 
ATOM     18  O   MET A   7      16.161  11.986   8.257  0.00  0.00    -0.286 OA
ENDBRANCH  16  17
BRANCH  16  19
ATOM     19  CB  MET A   7      18.622  12.816   9.688  0.00  0.00    +0.039 C 
BRANCH  19  20
ATOM     20  CG  MET A   7      18.766  14.141   8.984  0.00  0.00    +0.060 C 
BRANCH  20  21
ATOM     21  SD  MET A   7      19.962  14.129   7.631  0.00  0.00    -0.139 S 
ATOM     22  CE  MET A   7      21.543  14.047   8.747  0.00  0.00    +0.069 C 
ENDBRANCH  20  21
ENDBRANCH  19  20
ENDBRANCH  16  19
ENDBRANCH  14  16
ENDBRANCH  11  12
BRANCH  11  23
ATOM     23  CB  GLU A   6      18.576   9.892  13.470  0.00  0.00    +0.041 C 
BRANCH  23  24
ATOM     24  CG  GLU A   6      19.407   8.791  12.888  0.00  0.00    +0.116 C 
BRANCH  24  25
ATOM     25  CD  GLU A   6      20.751   8.720  13.573  0.00  0.00    +0.365 C 
ATOM     26  OE2 GLU A   6      20.887   7.903  14.519  0.00  0.00    -0.246 OA
ATOM     27  OE1 GLU A   6      21.630   9.504  13.149  0.00  0.00    -0.246 OA
ENDBRANCH  24  25
ENDBRANCH  23  24
ENDBRANCH  11  23
ENDBRANCH   9  11
ENDBRANCH   6   7
ENDBRANCH   4   6
ENDBRANCH   1   2
BRANCH   1  30
ATOM     28  C   LEU A   3      17.595   7.993   8.548  0.00  0.00    +0.241 C 
ATOM     29  O   LEU A   3      17.839   8.794   9.414  0.00  0.00    -0.273 OA
ATOM     30  N   ASN A   4      17.899   6.708   8.653  0.00  0.00    -0.297 N 
ATOM     31  H   ASN A   4      17.741   6.107   7.819  0.00  0.00    +0.150 HD
BRANCH  28  32
ATOM     32  CA  LEU A   3      16.947   8.461   7.240  0.00  0.00    +0.149 C 
BRANCH  32  35
ATOM     33  C   THR A   2      14.666   8.948   7.878  0.00  0.00    +0.243 C 
ATOM     34  O   THR A   2      14.391   7.801   7.921  0.00  0.00    -0.273 OA
ATOM     35  N   LEU A   3      15.871   9.366   7.566  0.00  0.00    -0.297 N 
ATOM     36  H   LEU A   3      16.057  10.389   7.553  0.00  0.00    +0.150 HD
BRANCH  33  37
ATOM     37  CA  THR A   2      13.583  10.005   8.148  0.00  0.00    +0.176 C 
BRANCH  37  39
ATOM     38  C   LEU A   1      12.618  10.888   6.138  0.00  0.00    +0.238 C 
ATOM     39  N   THR A   2      12.687   9.919   7.010  0.00  0.00    -0.295 N 
ATOM     40  H   THR A   2      12.092   9.075   6.887  0.00  0.00    +0.150 HD
ATOM     41  O   LEU A   1      13.192  11.942   6.241  0.00  0.00    -0.274 OA
BRANCH  38  42
ATOM     42  CA  LEU A   1      11.746  10.678   4.972  0.00  0.00    +0.145 C 
BRANCH  42  43
ATOM     43  N   LEU A   1      11.230  12.039   4.676  0.00  0.00    -0.238 NA
ATOM     44  H   LEU A   1      11.849  12.723   4.196  0.00  0.00    +0.142 HD
ENDBRANCH  42  43
BRANCH  42  45
ATOM     45  CB  LEU A   1      12.619  10.082   3.855  0.00  0.00    +0.026 C 
BRANCH  45  46
ATOM     46  CG  LEU A   1      11.878   9.939   2.541  0.00  0.00    +0.002 C 
ATOM     47  CD2 LEU A   1      10.713   8.967   2.696  0.00  0.00    +0.000 C 
ATOM     48  CD1 LEU A   1      12.839   9.542   1.461  0.00  0.00    +0.000 C 
ENDBRANCH  45  46
ENDBRANCH  42  45
ENDBRANCH  38  42
ENDBRANCH  37  39
BRANCH  37  49
ATOM     49  CB  THR A   2      12.835   9.684   9.472  0.00  0.00    +0.137 C 
ATOM     50  CG2 THR A   2      13.754   9.849  10.636  0.00  0.00    +0.034 C 
BRANCH  49  51
ATOM     51  OG1 THR A   2      11.864  10.686   9.721  0.00  0.00    -0.382 OA
ATOM     52  HG1 THR A   2      11.216  10.709   8.973  0.00  0.00    +0.210 HD
ENDBRANCH  49  51
ENDBRANCH  37  49
ENDBRANCH  33  37
ENDBRANCH  32  35
BRANCH  32  53
ATOM     53  CB  LEU A   3      17.984   9.164   6.381  0.00  0.00    +0.029 C 
BRANCH  53  54
ATOM     54  CG  LEU A   3      17.481  10.038   5.245  0.00  0.00    +0.002 C 
ATOM     55  CD2 LEU A   3      18.595  10.871   4.770  0.00  0.00    +0.000 C 
ATOM     56  CD1 LEU A   3      16.812   9.282   4.091  0.00  0.00    +0.000 C 
ENDBRANCH  53  54
ENDBRANCH  32  53
ENDBRANCH  28  32
ENDBRANCH   1  30
BRANCH   1  57
ATOM     57  CB  ASN A   4      19.828   6.645  10.227  0.00  0.00    +0.114 C 
BRANCH  57  58
ATOM     58  CG  ASN A   4      20.905   6.177   9.245  0.00  0.00    +0.222 C 
ATOM     59  OD1 ASN A   4      22.087   6.469   9.394  0.00  0.00    -0.275 OA
ATOM     60  ND2 ASN A   4      20.480   5.432   8.232  0.00  0.00    -0.329 N 
ATOM     61 HD21 ASN A   4      19.469   5.206   8.141  0.00  0.00    +0.145 HD
ATOM     62 HD22 ASN A   4      21.158   5.074   7.530  0.00  0.00    +0.145 HD
ENDBRANCH  57  58
ENDBRANCH   1  57
TORSDOF 28
REMARK  Name = ../refined-set-2016/1n46/1n46_pocket.pdb
REMARK  251 active torsions:
REMARK  status: ('A' for Active; 'I' for Inactive)
REMARK    1  A    between atoms: _1  and  _3
REMARK    2  A    between atoms: _3  and  _4
REMARK    3  A    between atoms: _3  and  _6
REMARK    4  A    between atoms: _6  and  _7
REMARK    5  A    between atoms: _12  and  _14
REMARK    6  A    between atoms: _14  and  _15
REMARK    7  A    between atoms: _14  and  _17
REMARK    8  A    between atoms: _17  and  _18
REMARK    9  A    between atoms: _21  and  _23
REMARK   10  A    between atoms: _23  and  _24
REMARK   11  A    between atoms: _23  and  _26
REMARK   12  A    between atoms: _26  and  _27
REMARK   13  A    between atoms: _32  and  _34
REMARK   14  A    between atoms: _34  and  _35
REMARK   15  A    between atoms: _38  and  _40
REMARK   16  A    between atoms: _40  and  _41
REMARK   17  A    between atoms: _40  and  _43
REMARK   18  A    between atoms: _46  and  _48
REMARK   19  A    between atoms: _48  and  _49
REMARK   20  A    between atoms: _48  and  _51
REMARK   21  A    between atoms: _51  and  _52
REMARK   22  A    between atoms: _55  and  _57
REMARK   23  A    between atoms: _57  and  _58
REMARK   24  A    between atoms: _61  and  _63
REMARK   25  A    between atoms: _63  and  _64
REMARK   26  A    between atoms: _63  and  _66
REMARK   27  A    between atoms: _66  and  _67
REMARK   28  A    between atoms: _73  and  _75
REMARK   29  A    between atoms: _75  and  _76
REMARK   30  A    between atoms: _75  and  _78
REMARK   31  A    between atoms: _78  and  _79
REMARK   32  A    between atoms: _81  and  _83
REMARK   33  A    between atoms: _83  and  _84
REMARK   34  A    between atoms: _83  and  _86
REMARK   35  A    between atoms: _86  and  _87
REMARK   36  A    between atoms: _92  and  _94
REMARK   37  A    between atoms: _94  and  _95
REMARK   38  A    between atoms: _94  and  _97
REMARK   39  A    between atoms: _97  and  _98
REMARK   40  A    between atoms: _104  and  _106
REMARK   41  A    between atoms: _106  and  _107
REMARK   42  A    between atoms: _106  and  _109
REMARK   43  A    between atoms: _109  and  _110
REMARK   44  A    between atoms: _113  and  _115
REMARK   45  A    between atoms: _115  and  _116
REMARK   46  A    between atoms: _115  and  _118
REMARK   47  A    between atoms: _118  and  _119
REMARK   48  A    between atoms: _119  and  _120
REMARK   49  A    between atoms: _120  and  _121
REMARK   50  A    between atoms: _121  and  _122
REMARK   51  A    between atoms: _126  and  _128
REMARK   52  A    between atoms: _128  and  _129
REMARK   53  A    between atoms: _128  and  _131
REMARK   54  A    between atoms: _131  and  _132
REMARK   55  A    between atoms: _135  and  _137
REMARK   56  A    between atoms: _137  and  _138
REMARK   57  A    between atoms: _137  and  _140
REMARK   58  A    between atoms: _140  and  _141
REMARK   59  A    between atoms: _144  and  _146
REMARK   60  A    between atoms: _146  and  _147
REMARK   61  A    between atoms: _146  and  _149
REMARK   62  A    between atoms: _149  and  _150
REMARK   63  A    between atoms: _154  and  _155
REMARK   64  A    between atoms: _160  and  _162
REMARK   65  A    between atoms: _162  and  _163
REMARK   66  A    between atoms: _166  and  _168
REMARK   67  A    between atoms: _168  and  _169
REMARK   68  A    between atoms: _168  and  _171
REMARK   69  A    between atoms: _171  and  _172
REMARK   70  A    between atoms: _177  and  _178
REMARK   71  A    between atoms: _177  and  _180
REMARK   72  A    between atoms: _180  and  _181
REMARK   73  A    between atoms: _184  and  _186
REMARK   74  A    between atoms: _186  and  _187
REMARK   75  A    between atoms: _186  and  _189
REMARK   76  A    between atoms: _189  and  _190
REMARK   77  A    between atoms: _190  and  _191
REMARK   78  A    between atoms: _191  and  _192
REMARK   79  A    between atoms: _201  and  _203
REMARK   80  A    between atoms: _203  and  _204
REMARK   81  A    between atoms: _203  and  _206
REMARK   82  A    between atoms: _209  and  _211
REMARK   83  A    between atoms: _211  and  _212
REMARK   84  A    between atoms: _211  and  _214
REMARK   85  A    between atoms: _217  and  _219
REMARK   86  A    between atoms: _219  and  _220
REMARK   87  A    between atoms: _219  and  _222
REMARK   88  A    between atoms: _224  and  _226
REMARK   89  A    between atoms: _226  and  _227
REMARK   90  A    between atoms: _226  and  _229
REMARK   91  A    between atoms: _229  and  _230
REMARK   92  A    between atoms: _230  and  _231
REMARK   93  A    between atoms: _233  and  _235
REMARK   94  A    between atoms: _235  and  _236
REMARK   95  A    between atoms: _235  and  _238
REMARK   96  A    between atoms: _238  and  _239
REMARK   97  A    between atoms: _242  and  _244
REMARK   98  A    between atoms: _244  and  _245
REMARK   99  A    between atoms: _244  and  _247
REMARK  100  A    between atoms: _247  and  _248
REMARK  101  A    between atoms: _248  and  _249
REMARK  102  A    between atoms: _251  and  _253
REMARK  103  A    between atoms: _253  and  _254
REMARK  104  A    between atoms: _253  and  _256
REMARK  105  A    between atoms: _256  and  _257
REMARK  106  A    between atoms: _259  and  _261
REMARK  107  A    between atoms: _261  and  _262
REMARK  108  A    between atoms: _261  and  _264
REMARK  109  A    between atoms: _264  and  _265
REMARK  110  A    between atoms: _268  and  _270
REMARK  111  A    between atoms: _270  and  _271
REMARK  112  A    between atoms: _270  and  _273
REMARK  113  A    between atoms: _273  and  _274
REMARK  114  A    between atoms: _274  and  _275
REMARK  115  A    between atoms: _275  and  _276
REMARK  116  A    between atoms: _285  and  _287
REMARK  117  A    between atoms: _287  and  _288
REMARK  118  A    between atoms: _291  and  _293
REMARK  119  A    between atoms: _293  and  _294
REMARK  120  A    between atoms: _297  and  _299
REMARK  121  A    between atoms: _299  and  _300
REMARK  122  A    between atoms: _299  and  _302
REMARK  123  A    between atoms: _305  and  _307
REMARK  124  A    between atoms: _307  and  _308
REMARK  125  A    between atoms: _307  and  _310
REMARK  126  A    between atoms: _310  and  _311
REMARK  127  A    between atoms: _311  and  _312
REMARK  128  A    between atoms: _312  and  _313
REMARK  129  A    between atoms: _322  and  _324
REMARK  130  A    between atoms: _324  and  _325
REMARK  131  A    between atoms: _324  and  _327
REMARK  132  A    between atoms: _327  and  _328
REMARK  133  A    between atoms: _331  and  _333
REMARK  134  A    between atoms: _333  and  _334
REMARK  135  A    between atoms: _333  and  _336
REMARK  136  A    between atoms: _336  and  _337
REMARK  137  A    between atoms: _340  and  _342
REMARK  138  A    between atoms: _342  and  _343
REMARK  139  A    between atoms: _342  and  _345
REMARK  140  A    between atoms: _345  and  _346
REMARK  141  A    between atoms: _349  and  _351
REMARK  142  A    between atoms: _351  and  _352
REMARK  143  A    between atoms: _351  and  _354
REMARK  144  A    between atoms: _354  and  _355
REMARK  145  A    between atoms: _360  and  _362
REMARK  146  A    between atoms: _362  and  _363
REMARK  147  A    between atoms: _365  and  _367
REMARK  148  A    between atoms: _367  and  _368
REMARK  149  A    between atoms: _367  and  _370
REMARK  150  A    between atoms: _370  and  _371
REMARK  151  A    between atoms: _371  and  _372
REMARK  152  A    between atoms: _375  and  _377
REMARK  153  A    between atoms: _377  and  _378
REMARK  154  A    between atoms: _377  and  _380
REMARK  155  A    between atoms: _380  and  _381
REMARK  156  A    between atoms: _381  and  _382
REMARK  157  A    between atoms: _384  and  _386
REMARK  158  A    between atoms: _386  and  _387
REMARK  159  A    between atoms: _386  and  _389
REMARK  160  A    between atoms: _392  and  _394
REMARK  161  A    between atoms: _394  and  _395
REMARK  162  A    between atoms: _394  and  _397
REMARK  163  A    between atoms: _397  and  _398
REMARK  164  A    between atoms: _398  and  _399
REMARK  165  A    between atoms: _404  and  _406
REMARK  166  A    between atoms: _406  and  _407
REMARK  167  A    between atoms: _406  and  _409
REMARK  168  A    between atoms: _409  and  _410
REMARK  169  A    between atoms: _413  and  _415
REMARK  170  A    between atoms: _415  and  _416
REMARK  171  A    between atoms: _415  and  _418
REMARK  172  A    between atoms: _418  and  _419
REMARK  173  A    between atoms: _419  and  _420
REMARK  174  A    between atoms: _420  and  _421
REMARK  175  A    between atoms: _421  and  _422
REMARK  176  A    between atoms: _426  and  _428
REMARK  177  A    between atoms: _428  and  _429
REMARK  178  A    between atoms: _428  and  _431
REMARK  179  A    between atoms: _431  and  _432
REMARK  180  A    between atoms: _437  and  _439
REMARK  181  A    between atoms: _439  and  _440
REMARK  182  A    between atoms: _442  and  _444
REMARK  183  A    between atoms: _444  and  _445
REMARK  184  A    between atoms: _447  and  _449
REMARK  185  A    between atoms: _449  and  _450
REMARK  186  A    between atoms: _449  and  _452
REMARK  187  A    between atoms: _452  and  _453
REMARK  188  A    between atoms: _456  and  _458
REMARK  189  A    between atoms: _458  and  _459
REMARK  190  A    between atoms: _461  and  _463
REMARK  191  A    between atoms: _463  and  _464
REMARK  192  A    between atoms: _463  and  _466
REMARK  193  A    between atoms: _469  and  _471
REMARK  194  A    between atoms: _471  and  _472
REMARK  195  A    between atoms: _471  and  _474
REMARK  196  A    between atoms: _474  and  _475
REMARK  197  A    between atoms: _477  and  _479
REMARK  198  A    between atoms: _479  and  _480
REMARK  199  A    between atoms: _479  and  _482
REMARK  200  A    between atoms: _482  and  _483
REMARK  201  A    between atoms: _486  and  _488
REMARK  202  A    between atoms: _488  and  _489
REMARK  203  A    between atoms: _488  and  _491
REMARK  204  A    between atoms: _491  and  _492
REMARK  205  A    between atoms: _498  and  _500
REMARK  206  A    between atoms: _500  and  _501
REMARK  207  A    between atoms: _500  and  _503
REMARK  208  A    between atoms: _503  and  _504
REMARK  209  A    between atoms: _504  and  _505
REMARK  210  A    between atoms: _510  and  _512
REMARK  211  A    between atoms: _512  and  _513
REMARK  212  A    between atoms: _512  and  _515
REMARK  213  A    between atoms: _515  and  _516
REMARK  214  A    between atoms: _519  and  _521
REMARK  215  A    between atoms: _521  and  _522
REMARK  216  A    between atoms: _521  and  _524
REMARK  217  A    between atoms: _524  and  _525
REMARK  218  A    between atoms: _530  and  _532
REMARK  219  A    between atoms: _532  and  _533
REMARK  220  A    between atoms: _536  and  _538
REMARK  221  A    between atoms: _538  and  _539
REMARK  222  A    between atoms: _538  and  _541
REMARK  223  A    between atoms: _541  and  _542
REMARK  224  A    between atoms: _542  and  _543
REMARK  225  A    between atoms: _543  and  _544
REMARK  226  A    between atoms: _553  and  _555
REMARK  227  A    between atoms: _555  and  _556
REMARK  228  A    between atoms: _555  and  _558
REMARK  229  A    between atoms: _558  and  _559
REMARK  230  A    between atoms: _565  and  _567
REMARK  231  A    between atoms: _567  and  _568
REMARK  232  A    between atoms: _567  and  _570
REMARK  233  A    between atoms: _570  and  _571
REMARK  234  A    between atoms: _571  and  _572
REMARK  235  A    between atoms: _574  and  _576
REMARK  236  A    between atoms: _576  and  _577
REMARK  237  A    between atoms: _576  and  _579
REMARK  238  A    between atoms: _579  and  _580
REMARK  239  A    between atoms: _583  and  _585
REMARK  240  A    between atoms: _585  and  _586
REMARK  241  A    between atoms: _585  and  _588
REMARK  242  A    between atoms: _588  and  _589
REMARK  243  A    between atoms: _596  and  _597
REMARK  244  A    between atoms: _602  and  _604
REMARK  245  A    between atoms: _604  and  _605
REMARK  246  A    between atoms: _604  and  _607
REMARK  247  A    between atoms: _607  and  _608
REMARK  248  A    between atoms: _614  and  _616
REMARK  249  A    between atoms: _616  and  _617
REMARK  250  A    between atoms: _616  and  _619
REMARK  251  A    between atoms: _619  and  _620
REMARK                            x       y       z     vdW  Elec       q    Type
REMARK                         _______ _______ _______ _____ _____    ______ ____
ROOT
ATOM      1  CA  VAL A   1      14.657  15.282   5.174  0.00  0.00    +0.133 C 
ENDROOT
BRANCH   1   2
ATOM      2  CB  VAL A   1      15.914  14.654   4.456  0.00  0.00    +0.023 C 
ATOM      3  CG2 VAL A   1      17.030  14.515   5.372  0.00  0.00    +0.002 C 
ATOM      4  CG1 VAL A   1      15.618  13.270   3.872  0.00  0.00    +0.002 C 
ENDBRANCH   1   2
BRANCH   1   5
ATOM      5  N   VAL A   1      14.273  14.491   6.316  0.00  0.00    -0.239 NA
ATOM      6  H   VAL A   1      13.768  13.596   6.159  0.00  0.00    +0.142 HD
ENDBRANCH   1   5
BRANCH   1   7
ATOM      7  C   VAL A   1      13.501  15.454   4.195  0.00  0.00    +0.224 C 
ATOM      8  O   VAL A   1      12.650  14.586   4.054  0.00  0.00    -0.287 OA
ENDBRANCH   1   7
TORSDOF 3
REMARK  Name = ../refined-set-2016/1n46/1n46_pocket.pdb
REMARK  251 active torsions:
REMARK  status: ('A' for Active; 'I' for Inactive)
REMARK    1  A    between atoms: _1  and  _3
REMARK    2  A    between atoms: _3  and  _4
REMARK    3  A    between atoms: _3  and  _6
REMARK    4  A    between atoms: _6  and  _7
REMARK    5  A    between atoms: _12  and  _14
REMARK    6  A    between atoms: _14  and  _15
REMARK    7  A    between atoms: _14  and  _17
REMARK    8  A    between atoms: _17  and  _18
REMARK    9  A    between atoms: _21  and  _23
REMARK   10  A    between atoms: _23  and  _24
REMARK   11  A    between atoms: _23  and  _26
REMARK   12  A    between atoms: _26  and  _27
REMARK   13  A    between atoms: _32  and  _34
REMARK   14  A    between atoms: _34  and  _35
REMARK   15  A    between atoms: _38  and  _40
REMARK   16  A    between atoms: _40  and  _41
REMARK   17  A    between atoms: _40  and  _43
REMARK   18  A    between atoms: _46  and  _48
REMARK   19  A    between atoms: _48  and  _49
REMARK   20  A    between atoms: _48  and  _51
REMARK   21  A    between atoms: _51  and  _52
REMARK   22  A    between atoms: _55  and  _57
REMARK   23  A    between atoms: _57  and  _58
REMARK   24  A    between atoms: _61  and  _63
REMARK   25  A    between atoms: _63  and  _64
REMARK   26  A    between atoms: _63  and  _66
REMARK   27  A    between atoms: _66  and  _67
REMARK   28  A    between atoms: _73  and  _75
REMARK   29  A    between atoms: _75  and  _76
REMARK   30  A    between atoms: _75  and  _78
REMARK   31  A    between atoms: _78  and  _79
REMARK   32  A    between atoms: _81  and  _83
REMARK   33  A    between atoms: _83  and  _84
REMARK   34  A    between atoms: _83  and  _86
REMARK   35  A    between atoms: _86  and  _87
REMARK   36  A    between atoms: _92  and  _94
REMARK   37  A    between atoms: _94  and  _95
REMARK   38  A    between atoms: _94  and  _97
REMARK   39  A    between atoms: _97  and  _98
REMARK   40  A    between atoms: _104  and  _106
REMARK   41  A    between atoms: _106  and  _107
REMARK   42  A    between atoms: _106  and  _109
REMARK   43  A    between atoms: _109  and  _110
REMARK   44  A    between atoms: _113  and  _115
REMARK   45  A    between atoms: _115  and  _116
REMARK   46  A    between atoms: _115  and  _118
REMARK   47  A    between atoms: _118  and  _119
REMARK   48  A    between atoms: _119  and  _120
REMARK   49  A    between atoms: _120  and  _121
REMARK   50  A    between atoms: _121  and  _122
REMARK   51  A    between atoms: _126  and  _128
REMARK   52  A    between atoms: _128  and  _129
REMARK   53  A    between atoms: _128  and  _131
REMARK   54  A    between atoms: _131  and  _132
REMARK   55  A    between atoms: _135  and  _137
REMARK   56  A    between atoms: _137  and  _138
REMARK   57  A    between atoms: _137  and  _140
REMARK   58  A    between atoms: _140  and  _141
REMARK   59  A    between atoms: _144  and  _146
REMARK   60  A    between atoms: _146  and  _147
REMARK   61  A    between atoms: _146  and  _149
REMARK   62  A    between atoms: _149  and  _150
REMARK   63  A    between atoms: _154  and  _155
REMARK   64  A    between atoms: _160  and  _162
REMARK   65  A    between atoms: _162  and  _163
REMARK   66  A    between atoms: _166  and  _168
REMARK   67  A    between atoms: _168  and  _169
REMARK   68  A    between atoms: _168  and  _171
REMARK   69  A    between atoms: _171  and  _172
REMARK   70  A    between atoms: _177  and  _178
REMARK   71  A    between atoms: _177  and  _180
REMARK   72  A    between atoms: _180  and  _181
REMARK   73  A    between atoms: _184  and  _186
REMARK   74  A    between atoms: _186  and  _187
REMARK   75  A    between atoms: _186  and  _189
REMARK   76  A    between atoms: _189  and  _190
REMARK   77  A    between atoms: _190  and  _191
REMARK   78  A    between atoms: _191  and  _192
REMARK   79  A    between atoms: _201  and  _203
REMARK   80  A    between atoms: _203  and  _204
REMARK   81  A    between atoms: _203  and  _206
REMARK   82  A    between atoms: _209  and  _211
REMARK   83  A    between atoms: _211  and  _212
REMARK   84  A    between atoms: _211  and  _214
REMARK   85  A    between atoms: _217  and  _219
REMARK   86  A    between atoms: _219  and  _220
REMARK   87  A    between atoms: _219  and  _222
REMARK   88  A    between atoms: _224  and  _226
REMARK   89  A    between atoms: _226  and  _227
REMARK   90  A    between atoms: _226  and  _229
REMARK   91  A    between atoms: _229  and  _230
REMARK   92  A    between atoms: _230  and  _231
REMARK   93  A    between atoms: _233  and  _235
REMARK   94  A    between atoms: _235  and  _236
REMARK   95  A    between atoms: _235  and  _238
REMARK   96  A    between atoms: _238  and  _239
REMARK   97  A    between atoms: _242  and  _244
REMARK   98  A    between atoms: _244  and  _245
REMARK   99  A    between atoms: _244  and  _247
REMARK  100  A    between atoms: _247  and  _248
REMARK  101  A    between atoms: _248  and  _249
REMARK  102  A    between atoms: _251  and  _253
REMARK  103  A    between atoms: _253  and  _254
REMARK  104  A    between atoms: _253  and  _256
REMARK  105  A    between atoms: _256  and  _257
REMARK  106  A    between atoms: _259  and  _261
REMARK  107  A    between atoms: _261  and  _262
REMARK  108  A    between atoms: _261  and  _264
REMARK  109  A    between atoms: _264  and  _265
REMARK  110  A    between atoms: _268  and  _270
REMARK  111  A    between atoms: _270  and  _271
REMARK  112  A    between atoms: _270  and  _273
REMARK  113  A    between atoms: _273  and  _274
REMARK  114  A    between atoms: _274  and  _275
REMARK  115  A    between atoms: _275  and  _276
REMARK  116  A    between atoms: _285  and  _287
REMARK  117  A    between atoms: _287  and  _288
REMARK  118  A    between atoms: _291  and  _293
REMARK  119  A    between atoms: _293  and  _294
REMARK  120  A    between atoms: _297  and  _299
REMARK  121  A    between atoms: _299  and  _300
REMARK  122  A    between atoms: _299  and  _302
REMARK  123  A    between atoms: _305  and  _307
REMARK  124  A    between atoms: _307  and  _308
REMARK  125  A    between atoms: _307  and  _310
REMARK  126  A    between atoms: _310  and  _311
REMARK  127  A    between atoms: _311  and  _312
REMARK  128  A    between atoms: _312  and  _313
REMARK  129  A    between atoms: _322  and  _324
REMARK  130  A    between atoms: _324  and  _325
REMARK  131  A    between atoms: _324  and  _327
REMARK  132  A    between atoms: _327  and  _328
REMARK  133  A    between atoms: _331  and  _333
REMARK  134  A    between atoms: _333  and  _334
REMARK  135  A    between atoms: _333  and  _336
REMARK  136  A    between atoms: _336  and  _337
REMARK  137  A    between atoms: _340  and  _342
REMARK  138  A    between atoms: _342  and  _343
REMARK  139  A    between atoms: _342  and  _345
REMARK  140  A    between atoms: _345  and  _346
REMARK  141  A    between atoms: _349  and  _351
REMARK  142  A    between atoms: _351  and  _352
REMARK  143  A    between atoms: _351  and  _354
REMARK  144  A    between atoms: _354  and  _355
REMARK  145  A    between atoms: _360  and  _362
REMARK  146  A    between atoms: _362  and  _363
REMARK  147  A    between atoms: _365  and  _367
REMARK  148  A    between atoms: _367  and  _368
REMARK  149  A    between atoms: _367  and  _370
REMARK  150  A    between atoms: _370  and  _371
REMARK  151  A    between atoms: _371  and  _372
REMARK  152  A    between atoms: _375  and  _377
REMARK  153  A    between atoms: _377  and  _378
REMARK  154  A    between atoms: _377  and  _380
REMARK  155  A    between atoms: _380  and  _381
REMARK  156  A    between atoms: _381  and  _382
REMARK  157  A    between atoms: _384  and  _386
REMARK  158  A    between atoms: _386  and  _387
REMARK  159  A    between atoms: _386  and  _389
REMARK  160  A    between atoms: _392  and  _394
REMARK  161  A    between atoms: _394  and  _395
REMARK  162  A    between atoms: _394  and  _397
REMARK  163  A    between atoms: _397  and  _398
REMARK  164  A    between atoms: _398  and  _399
REMARK  165  A    between atoms: _404  and  _406
REMARK  166  A    between atoms: _406  and  _407
REMARK  167  A    between atoms: _406  and  _409
REMARK  168  A    between atoms: _409  and  _410
REMARK  169  A    between atoms: _413  and  _415
REMARK  170  A    between atoms: _415  and  _416
REMARK  171  A    between atoms: _415  and  _418
REMARK  172  A    between atoms: _418  and  _419
REMARK  173  A    between atoms: _419  and  _420
REMARK  174  A    between atoms: _420  and  _421
REMARK  175  A    between atoms: _421  and  _422
REMARK  176  A    between atoms: _426  and  _428
REMARK  177  A    between atoms: _428  and  _429
REMARK  178  A    between atoms: _428  and  _431
REMARK  179  A    between atoms: _431  and  _432
REMARK  180  A    between atoms: _437  and  _439
REMARK  181  A    between atoms: _439  and  _440
REMARK  182  A    between atoms: _442  and  _444
REMARK  183  A    between atoms: _444  and  _445
REMARK  184  A    between atoms: _447  and  _449
REMARK  185  A    between atoms: _449  and  _450
REMARK  186  A    between atoms: _449  and  _452
REMARK  187  A    between atoms: _452  and  _453
REMARK  188  A    between atoms: _456  and  _458
REMARK  189  A    between atoms: _458  and  _459
REMARK  190  A    between atoms: _461  and  _463
REMARK  191  A    between atoms: _463  and  _464
REMARK  192  A    between atoms: _463  and  _466
REMARK  193  A    between atoms: _469  and  _471
REMARK  194  A    between atoms: _471  and  _472
REMARK  195  A    between atoms: _471  and  _474
REMARK  196  A    between atoms: _474  and  _475
REMARK  197  A    between atoms: _477  and  _479
REMARK  198  A    between atoms: _479  and  _480
REMARK  199  A    between atoms: _479  and  _482
REMARK  200  A    between atoms: _482  and  _483
REMARK  201  A    between atoms: _486  and  _488
REMARK  202  A    between atoms: _488  and  _489
REMARK  203  A    between atoms: _488  and  _491
REMARK  204  A    between atoms: _491  and  _492
REMARK  205  A    between atoms: _498  and  _500
REMARK  206  A    between atoms: _500  and  _501
REMARK  207  A    between atoms: _500  and  _503
REMARK  208  A    between atoms: _503  and  _504
REMARK  209  A    between atoms: _504  and  _505
REMARK  210  A    between atoms: _510  and  _512
REMARK  211  A    between atoms: _512  and  _513
REMARK  212  A    between atoms: _512  and  _515
REMARK  213  A    between atoms: _515  and  _516
REMARK  214  A    between atoms: _519  and  _521
REMARK  215  A    between atoms: _521  and  _522
REMARK  216  A    between atoms: _521  and  _524
REMARK  217  A    between atoms: _524  and  _525
REMARK  218  A    between atoms: _530  and  _532
REMARK  219  A    between atoms: _532  and  _533
REMARK  220  A    between atoms: _536  and  _538
REMARK  221  A    between atoms: _538  and  _539
REMARK  222  A    between atoms: _538  and  _541
REMARK  223  A    between atoms: _541  and  _542
REMARK  224  A    between atoms: _542  and  _543
REMARK  225  A    between atoms: _543  and  _544
REMARK  226  A    between atoms: _553  and  _555
REMARK  227  A    between atoms: _555  and  _556
REMARK  228  A    between atoms: _555  and  _558
REMARK  229  A    between atoms: _558  and  _559
REMARK  230  A    between atoms: _565  and  _567
REMARK  231  A    between atoms: _567  and  _568
REMARK  232  A    between atoms: _567  and  _570
REMARK  233  A    between atoms: _570  and  _571
REMARK  234  A    between atoms: _571  and  _572
REMARK  235  A    between atoms: _574  and  _576
REMARK  236  A    between atoms: _576  and  _577
REMARK  237  A    between atoms: _576  and  _579
REMARK  238  A    between atoms: _579  and  _580
REMARK  239  A    between atoms: _583  and  _585
REMARK  240  A    between atoms: _585  and  _586
REMARK  241  A    between atoms: _585  and  _588
REMARK  242  A    between atoms: _588  and  _589
REMARK  243  A    between atoms: _596  and  _597
REMARK  244  A    between atoms: _602  and  _604
REMARK  245  A    between atoms: _604  and  _605
REMARK  246  A    between atoms: _604  and  _607
REMARK  247  A    between atoms: _607  and  _608
REMARK  248  A    between atoms: _614  and  _616
REMARK  249  A    between atoms: _616  and  _617
REMARK  250  A    between atoms: _616  and  _619
REMARK  251  A    between atoms: _619  and  _620
REMARK                            x       y       z     vdW  Elec       q    Type
REMARK                         _______ _______ _______ _____ _____    ______ ____
ROOT
ATOM      1  C   LYS A   3      18.855  16.457  -4.393  0.00  0.00    +0.241 C 
ATOM      2  N   ASN A   4      18.801  17.616  -3.748  0.00  0.00    -0.297 N 
ATOM      3  H   ASN A   4      17.968  17.857  -3.173  0.00  0.00    +0.150 HD
ATOM      4  O   LYS A   3      19.844  16.133  -5.083  0.00  0.00    -0.273 OA
ENDROOT
BRANCH   2   5
ATOM      5  CA  ASN A   4      19.923  18.554  -3.851  0.00  0.00    +0.158 C 
BRANCH   5   6
ATOM      6  C   ASN A   4      21.225  18.032  -3.217  0.00  0.00    +0.241 C 
ATOM      7  N   GLY A   5      21.163  17.272  -2.145  0.00  0.00    -0.295 N 
ATOM      8  H   GLY A   5      20.242  16.991  -1.751  0.00  0.00    +0.150 HD
ATOM      9  O   ASN A   4      22.270  18.321  -3.684  0.00  0.00    -0.273 OA
BRANCH   7  10
ATOM     10  CA  GLY A   5      22.408  16.826  -1.514  0.00  0.00    +0.176 C 
BRANCH  10  11
ATOM     11  C   GLY A   5      23.055  15.644  -2.198  0.00  0.00    +0.243 C 
ATOM     12  O   GLY A   5      24.000  15.051  -1.650  0.00  0.00    -0.273 OA
ATOM     13  N   GLY A   6      22.613  15.295  -3.398  0.00  0.00    -0.295 N 
ATOM     14  H   GLY A   6      21.779  15.761  -3.810  0.00  0.00    +0.150 HD
BRANCH  13  15
ATOM     15  CA  GLY A   6      23.308  14.257  -4.125  0.00  0.00    +0.176 C 
BRANCH  15  16
ATOM     16  C   GLY A   6      22.448  13.254  -4.832  0.00  0.00    +0.243 C 
ATOM     17  N   LEU A   7      21.235  12.979  -4.338  0.00  0.00    -0.297 N 
ATOM     18  H   LEU A   7      20.853  13.533  -3.545  0.00  0.00    +0.150 HD
ATOM     19  O   GLY A   6      22.899  12.728  -5.841  0.00  0.00    -0.273 OA
BRANCH  17  20
ATOM     20  CA  LEU A   7      20.455  11.898  -4.921  0.00  0.00    +0.149 C 
BRANCH  20  21
ATOM     21  C   LEU A   7      19.812  12.280  -6.230  0.00  0.00    +0.241 C 
ATOM     22  N   GLY A   8      19.682  13.574  -6.531  0.00  0.00    -0.296 N 
ATOM     23  H   GLY A   8      20.092  14.295  -5.904  0.00  0.00    +0.150 HD
ATOM     24  O   LEU A   7      19.510  11.400  -7.007  0.00  0.00    -0.273 OA
BRANCH  22  25
ATOM     25  CA  GLY A   8      18.963  13.983  -7.743  0.00  0.00    +0.163 C 
BRANCH  25  26
ATOM     26  C   GLY A   8      17.624  13.288  -7.856  0.00  0.00    +0.229 C 
ATOM     27  O   GLY A   8      16.949  13.152  -6.861  0.00  0.00    -0.286 OA
ENDBRANCH  25  26
ENDBRANCH  22  25
ENDBRANCH  20  21
BRANCH  20  28
ATOM     28  CB  LEU A   7      19.475  11.261  -3.938  0.00  0.00    +0.029 C 
BRANCH  28  29
ATOM     29  CG  LEU A   7      20.089  10.433  -2.779  0.00  0.00    +0.002 C 
ATOM     30  CD2 LEU A   7      19.133   9.417  -2.155  0.00  0.00    +0.000 C 
ATOM     31  CD1 LEU A   7      21.335   9.698  -3.218  0.00  0.00    +0.000 C 
ENDBRANCH  28  29
ENDBRANCH  20  28
ENDBRANCH  17  20
ENDBRANCH  15  16
ENDBRANCH  13  15
ENDBRANCH  10  11
ENDBRANCH   7  10
ENDBRANCH   5   6
BRANCH   5  32
ATOM     32  CB  ASN A   4      19.518  19.913  -3.313  0.00  0.00    +0.114 C 
BRANCH  32  33
ATOM     33  CG  ASN A   4      18.637  20.672  -4.274  0.00  0.00    +0.222 C 
ATOM     34  ND2 ASN A   4      17.745  21.516  -3.767  0.00  0.00    -0.329 N 
ATOM     35 HD21 ASN A   4      17.693  21.662  -2.739  0.00  0.00    +0.145 HD
ATOM     36 HD22 ASN A   4      17.099  22.031  -4.399  0.00  0.00    +0.145 HD
ATOM     37  OD1 ASN A   4      18.733  20.471  -5.464  0.00  0.00    -0.275 OA
ENDBRANCH  32  33
ENDBRANCH   5  32
ENDBRANCH   2   5
BRANCH   1  38
ATOM     38  CA  LYS A   3      17.626  15.561  -4.214  0.00  0.00    +0.149 C 
BRANCH  38  41
ATOM     39  C   LEU A   2      18.181  14.714  -1.913  0.00  0.00    +0.241 C 
ATOM     40  O   LEU A   2      19.261  14.219  -2.247  0.00  0.00    -0.273 OA
ATOM     41  N   LYS A   3      17.368  15.331  -2.771  0.00  0.00    -0.297 N 
ATOM     42  H   LYS A   3      16.466  15.685  -2.392  0.00  0.00    +0.150 HD
BRANCH  39  43
ATOM     43  CA  LEU A   2      17.720  14.680  -0.418  0.00  0.00    +0.149 C 
BRANCH  43  45
ATOM     44  C   GLN A   1      17.806  17.050   0.093  0.00  0.00    +0.238 C 
ATOM     45  N   LEU A   2      17.111  15.930   0.028  0.00  0.00    -0.297 N 
ATOM     46  H   LEU A   2      16.107  15.938   0.300  0.00  0.00    +0.150 HD
ATOM     47  O   GLN A   1      19.014  17.100  -0.145  0.00  0.00    -0.274 OA
BRANCH  44  48
ATOM     48  CA  GLN A   1      17.060  18.317   0.471  0.00  0.00    +0.145 C 
BRANCH  48  49
ATOM     49  N   GLN A   1      15.796  18.484  -0.227  0.00  0.00    -0.238 NA
ATOM     50  H   GLN A   1      14.916  18.520   0.326  0.00  0.00    +0.142 HD
ENDBRANCH  48  49
BRANCH  48  51
ATOM     51  CB  GLN A   1      16.858  18.335   1.995  0.00  0.00    +0.036 C 
BRANCH  51  52
ATOM     52  CG  GLN A   1      16.656  19.675   2.677  0.00  0.00    +0.087 C 
BRANCH  52  53
ATOM     53  CD  GLN A   1      16.251  19.525   4.144  0.00  0.00    +0.219 C 
ATOM     54  NE2 GLN A   1      16.760  20.399   5.031  0.00  0.00    -0.329 N 
ATOM     55 HE21 GLN A   1      16.500  20.331   6.036  0.00  0.00    +0.145 HD
ATOM     56 HE22 GLN A   1      17.414  21.142   4.712  0.00  0.00    +0.145 HD
ATOM     57  OE1 GLN A   1      15.476  18.629   4.464  0.00  0.00    -0.275 OA
ENDBRANCH  52  53
ENDBRANCH  51  52
ENDBRANCH  48  51
ENDBRANCH  44  48
ENDBRANCH  43  45
BRANCH  43  58
ATOM     58  CB  LEU A   2      16.761  13.545  -0.193  0.00  0.00    +0.029 C 
BRANCH  58  59
ATOM     59  CG  LEU A   2      17.336  12.146  -0.330  0.00  0.00    +0.002 C 
ATOM     60  CD2 LEU A   2      18.561  11.929   0.590  0.00  0.00    +0.000 C 
ATOM     61  CD1 LEU A   2      16.289  11.160  -0.069  0.00  0.00    +0.000 C 
ENDBRANCH  58  59
ENDBRANCH  43  58
ENDBRANCH  39  43
ENDBRANCH  38  41
BRANCH  38  62
ATOM     62  CB  LYS A   3      16.379  16.266  -4.773  0.00  0.00    +0.029 C 
BRANCH  62  63
ATOM     63  CG  LYS A   3      16.292  16.817  -6.233  0.00  0.00    +0.000 C 
BRANCH  63  64
ATOM     64  CD  LYS A   3      15.069  16.135  -6.910  0.00  0.00    -0.024 C 
BRANCH  64  65
ATOM     65  CE  LYS A   3      14.142  16.965  -7.642  0.00  0.00    -0.086 C 
BRANCH  65  66
ATOM     66  NZ  LYS A   3      12.723  16.536  -7.326  0.00  0.00    +0.380 N 
ATOM     67  HZ1 LYS A   3      12.550  16.638  -6.306  0.00  0.00    -0.089 HD
ATOM     68  HZ2 LYS A   3      12.593  15.542  -7.603  0.00  0.00    -0.089 HD
ATOM     69  HZ3 LYS A   3      12.056  17.134  -7.854  0.00  0.00    -0.089 HD
ENDBRANCH  65  66
ENDBRANCH  64  65
ENDBRANCH  63  64
ENDBRANCH  62  63
ENDBRANCH  38  62
ENDBRANCH   1  38
TORSDOF 30
REMARK  Name = ../refined-set-2016/1n46/1n46_pocket.pdb
REMARK  251 active torsions:
REMARK  status: ('A' for Active; 'I' for Inactive)
REMARK    1  A    between atoms: _1  and  _3
REMARK    2  A    between atoms: _3  and  _4
REMARK    3  A    between atoms: _3  and  _6
REMARK    4  A    between atoms: _6  and  _7
REMARK    5  A    between atoms: _12  and  _14
REMARK    6  A    between atoms: _14  and  _15
REMARK    7  A    between atoms: _14  and  _17
REMARK    8  A    between atoms: _17  and  _18
REMARK    9  A    between atoms: _21  and  _23
REMARK   10  A    between atoms: _23  and  _24
REMARK   11  A    between atoms: _23  and  _26
REMARK   12  A    between atoms: _26  and  _27
REMARK   13  A    between atoms: _32  and  _34
REMARK   14  A    between atoms: _34  and  _35
REMARK   15  A    between atoms: _38  and  _40
REMARK   16  A    between atoms: _40  and  _41
REMARK   17  A    between atoms: _40  and  _43
REMARK   18  A    between atoms: _46  and  _48
REMARK   19  A    between atoms: _48  and  _49
REMARK   20  A    between atoms: _48  and  _51
REMARK   21  A    between atoms: _51  and  _52
REMARK   22  A    between atoms: _55  and  _57
REMARK   23  A    between atoms: _57  and  _58
REMARK   24  A    between atoms: _61  and  _63
REMARK   25  A    between atoms: _63  and  _64
REMARK   26  A    between atoms: _63  and  _66
REMARK   27  A    between atoms: _66  and  _67
REMARK   28  A    between atoms: _73  and  _75
REMARK   29  A    between atoms: _75  and  _76
REMARK   30  A    between atoms: _75  and  _78
REMARK   31  A    between atoms: _78  and  _79
REMARK   32  A    between atoms: _81  and  _83
REMARK   33  A    between atoms: _83  and  _84
REMARK   34  A    between atoms: _83  and  _86
REMARK   35  A    between atoms: _86  and  _87
REMARK   36  A    between atoms: _92  and  _94
REMARK   37  A    between atoms: _94  and  _95
REMARK   38  A    between atoms: _94  and  _97
REMARK   39  A    between atoms: _97  and  _98
REMARK   40  A    between atoms: _104  and  _106
REMARK   41  A    between atoms: _106  and  _107
REMARK   42  A    between atoms: _106  and  _109
REMARK   43  A    between atoms: _109  and  _110
REMARK   44  A    between atoms: _113  and  _115
REMARK   45  A    between atoms: _115  and  _116
REMARK   46  A    between atoms: _115  and  _118
REMARK   47  A    between atoms: _118  and  _119
REMARK   48  A    between atoms: _119  and  _120
REMARK   49  A    between atoms: _120  and  _121
REMARK   50  A    between atoms: _121  and  _122
REMARK   51  A    between atoms: _126  and  _128
REMARK   52  A    between atoms: _128  and  _129
REMARK   53  A    between atoms: _128  and  _131
REMARK   54  A    between atoms: _131  and  _132
REMARK   55  A    between atoms: _135  and  _137
REMARK   56  A    between atoms: _137  and  _138
REMARK   57  A    between atoms: _137  and  _140
REMARK   58  A    between atoms: _140  and  _141
REMARK   59  A    between atoms: _144  and  _146
REMARK   60  A    between atoms: _146  and  _147
REMARK   61  A    between atoms: _146  and  _149
REMARK   62  A    between atoms: _149  and  _150
REMARK   63  A    between atoms: _154  and  _155
REMARK   64  A    between atoms: _160  and  _162
REMARK   65  A    between atoms: _162  and  _163
REMARK   66  A    between atoms: _166  and  _168
REMARK   67  A    between atoms: _168  and  _169
REMARK   68  A    between atoms: _168  and  _171
REMARK   69  A    between atoms: _171  and  _172
REMARK   70  A    between atoms: _177  and  _178
REMARK   71  A    between atoms: _177  and  _180
REMARK   72  A    between atoms: _180  and  _181
REMARK   73  A    between atoms: _184  and  _186
REMARK   74  A    between atoms: _186  and  _187
REMARK   75  A    between atoms: _186  and  _189
REMARK   76  A    between atoms: _189  and  _190
REMARK   77  A    between atoms: _190  and  _191
REMARK   78  A    between atoms: _191  and  _192
REMARK   79  A    between atoms: _201  and  _203
REMARK   80  A    between atoms: _203  and  _204
REMARK   81  A    between atoms: _203  and  _206
REMARK   82  A    between atoms: _209  and  _211
REMARK   83  A    between atoms: _211  and  _212
REMARK   84  A    between atoms: _211  and  _214
REMARK   85  A    between atoms: _217  and  _219
REMARK   86  A    between atoms: _219  and  _220
REMARK   87  A    between atoms: _219  and  _222
REMARK   88  A    between atoms: _224  and  _226
REMARK   89  A    between atoms: _226  and  _227
REMARK   90  A    between atoms: _226  and  _229
REMARK   91  A    between atoms: _229  and  _230
REMARK   92  A    between atoms: _230  and  _231
REMARK   93  A    between atoms: _233  and  _235
REMARK   94  A    between atoms: _235  and  _236
REMARK   95  A    between atoms: _235  and  _238
REMARK   96  A    between atoms: _238  and  _239
REMARK   97  A    between atoms: _242  and  _244
REMARK   98  A    between atoms: _244  and  _245
REMARK   99  A    between atoms: _244  and  _247
REMARK  100  A    between atoms: _247  and  _248
REMARK  101  A    between atoms: _248  and  _249
REMARK  102  A    between atoms: _251  and  _253
REMARK  103  A    between atoms: _253  and  _254
REMARK  104  A    between atoms: _253  and  _256
REMARK  105  A    between atoms: _256  and  _257
REMARK  106  A    between atoms: _259  and  _261
REMARK  107  A    between atoms: _261  and  _262
REMARK  108  A    between atoms: _261  and  _264
REMARK  109  A    between atoms: _264  and  _265
REMARK  110  A    between atoms: _268  and  _270
REMARK  111  A    between atoms: _270  and  _271
REMARK  112  A    between atoms: _270  and  _273
REMARK  113  A    between atoms: _273  and  _274
REMARK  114  A    between atoms: _274  and  _275
REMARK  115  A    between atoms: _275  and  _276
REMARK  116  A    between atoms: _285  and  _287
REMARK  117  A    between atoms: _287  and  _288
REMARK  118  A    between atoms: _291  and  _293
REMARK  119  A    between atoms: _293  and  _294
REMARK  120  A    between atoms: _297  and  _299
REMARK  121  A    between atoms: _299  and  _300
REMARK  122  A    between atoms: _299  and  _302
REMARK  123  A    between atoms: _305  and  _307
REMARK  124  A    between atoms: _307  and  _308
REMARK  125  A    between atoms: _307  and  _310
REMARK  126  A    between atoms: _310  and  _311
REMARK  127  A    between atoms: _311  and  _312
REMARK  128  A    between atoms: _312  and  _313
REMARK  129  A    between atoms: _322  and  _324
REMARK  130  A    between atoms: _324  and  _325
REMARK  131  A    between atoms: _324  and  _327
REMARK  132  A    between atoms: _327  and  _328
REMARK  133  A    between atoms: _331  and  _333
REMARK  134  A    between atoms: _333  and  _334
REMARK  135  A    between atoms: _333  and  _336
REMARK  136  A    between atoms: _336  and  _337
REMARK  137  A    between atoms: _340  and  _342
REMARK  138  A    between atoms: _342  and  _343
REMARK  139  A    between atoms: _342  and  _345
REMARK  140  A    between atoms: _345  and  _346
REMARK  141  A    between atoms: _349  and  _351
REMARK  142  A    between atoms: _351  and  _352
REMARK  143  A    between atoms: _351  and  _354
REMARK  144  A    between atoms: _354  and  _355
REMARK  145  A    between atoms: _360  and  _362
REMARK  146  A    between atoms: _362  and  _363
REMARK  147  A    between atoms: _365  and  _367
REMARK  148  A    between atoms: _367  and  _368
REMARK  149  A    between atoms: _367  and  _370
REMARK  150  A    between atoms: _370  and  _371
REMARK  151  A    between atoms: _371  and  _372
REMARK  152  A    between atoms: _375  and  _377
REMARK  153  A    between atoms: _377  and  _378
REMARK  154  A    between atoms: _377  and  _380
REMARK  155  A    between atoms: _380  and  _381
REMARK  156  A    between atoms: _381  and  _382
REMARK  157  A    between atoms: _384  and  _386
REMARK  158  A    between atoms: _386  and  _387
REMARK  159  A    between atoms: _386  and  _389
REMARK  160  A    between atoms: _392  and  _394
REMARK  161  A    between atoms: _394  and  _395
REMARK  162  A    between atoms: _394  and  _397
REMARK  163  A    between atoms: _397  and  _398
REMARK  164  A    between atoms: _398  and  _399
REMARK  165  A    between atoms: _404  and  _406
REMARK  166  A    between atoms: _406  and  _407
REMARK  167  A    between atoms: _406  and  _409
REMARK  168  A    between atoms: _409  and  _410
REMARK  169  A    between atoms: _413  and  _415
REMARK  170  A    between atoms: _415  and  _416
REMARK  171  A    between atoms: _415  and  _418
REMARK  172  A    between atoms: _418  and  _419
REMARK  173  A    between atoms: _419  and  _420
REMARK  174  A    between atoms: _420  and  _421
REMARK  175  A    between atoms: _421  and  _422
REMARK  176  A    between atoms: _426  and  _428
REMARK  177  A    between atoms: _428  and  _429
REMARK  178  A    between atoms: _428  and  _431
REMARK  179  A    between atoms: _431  and  _432
REMARK  180  A    between atoms: _437  and  _439
REMARK  181  A    between atoms: _439  and  _440
REMARK  182  A    between atoms: _442  and  _444
REMARK  183  A    between atoms: _444  and  _445
REMARK  184  A    between atoms: _447  and  _449
REMARK  185  A    between atoms: _449  and  _450
REMARK  186  A    between atoms: _449  and  _452
REMARK  187  A    between atoms: _452  and  _453
REMARK  188  A    between atoms: _456  and  _458
REMARK  189  A    between atoms: _458  and  _459
REMARK  190  A    between atoms: _461  and  _463
REMARK  191  A    between atoms: _463  and  _464
REMARK  192  A    between atoms: _463  and  _466
REMARK  193  A    between atoms: _469  and  _471
REMARK  194  A    between atoms: _471  and  _472
REMARK  195  A    between atoms: _471  and  _474
REMARK  196  A    between atoms: _474  and  _475
REMARK  197  A    between atoms: _477  and  _479
REMARK  198  A    between atoms: _479  and  _480
REMARK  199  A    between atoms: _479  and  _482
REMARK  200  A    between atoms: _482  and  _483
REMARK  201  A    between atoms: _486  and  _488
REMARK  202  A    between atoms: _488  and  _489
REMARK  203  A    between atoms: _488  and  _491
REMARK  204  A    between atoms: _491  and  _492
REMARK  205  A    between atoms: _498  and  _500
REMARK  206  A    between atoms: _500  and  _501
REMARK  207  A    between atoms: _500  and  _503
REMARK  208  A    between atoms: _503  and  _504
REMARK  209  A    between atoms: _504  and  _505
REMARK  210  A    between atoms: _510  and  _512
REMARK  211  A    between atoms: _512  and  _513
REMARK  212  A    between atoms: _512  and  _515
REMARK  213  A    between atoms: _515  and  _516
REMARK  214  A    between atoms: _519  and  _521
REMARK  215  A    between atoms: _521  and  _522
REMARK  216  A    between atoms: _521  and  _524
REMARK  217  A    between atoms: _524  and  _525
REMARK  218  A    between atoms: _530  and  _532
REMARK  219  A    between atoms: _532  and  _533
REMARK  220  A    between atoms: _536  and  _538
REMARK  221  A    between atoms: _538  and  _539
REMARK  222  A    between atoms: _538  and  _541
REMARK  223  A    between atoms: _541  and  _542
REMARK  224  A    between atoms: _542  and  _543
REMARK  225  A    between atoms: _543  and  _544
REMARK  226  A    between atoms: _553  and  _555
REMARK  227  A    between atoms: _555  and  _556
REMARK  228  A    between atoms: _555  and  _558
REMARK  229  A    between atoms: _558  and  _559
REMARK  230  A    between atoms: _565  and  _567
REMARK  231  A    between atoms: _567  and  _568
REMARK  232  A    between atoms: _567  and  _570
REMARK  233  A    between atoms: _570  and  _571
REMARK  234  A    between atoms: _571  and  _572
REMARK  235  A    between atoms: _574  and  _576
REMARK  236  A    between atoms: _576  and  _577
REMARK  237  A    between atoms: _576  and  _579
REMARK  238  A    between atoms: _579  and  _580
REMARK  239  A    between atoms: _583  and  _585
REMARK  240  A    between atoms: _585  and  _586
REMARK  241  A    between atoms: _585  and  _588
REMARK  242  A    between atoms: _588  and  _589
REMARK  243  A    between atoms: _596  and  _597
REMARK  244  A    between atoms: _602  and  _604
REMARK  245  A    between atoms: _604  and  _605
REMARK  246  A    between atoms: _604  and  _607
REMARK  247  A    between atoms: _607  and  _608
REMARK  248  A    between atoms: _614  and  _616
REMARK  249  A    between atoms: _616  and  _617
REMARK  250  A    between atoms: _616  and  _619
REMARK  251  A    between atoms: _619  and  _620
REMARK                            x       y       z     vdW  Elec       q    Type
REMARK                         _______ _______ _______ _____ _____    ______ ____
ROOT
ATOM      1  C   VAL A   1      15.793   9.598  -5.587  0.00  0.00    +0.238 C 
ATOM      2  O   VAL A   1      15.171   8.776  -4.950  0.00  0.00    -0.274 OA
ATOM      3  N   SER A   2      15.857  10.899  -5.240  0.00  0.00    -0.296 N 
ATOM      4  H   SER A   2      16.507  11.532  -5.747  0.00  0.00    +0.150 HD
ENDROOT
BRANCH   1   5
ATOM      5  CA  VAL A   1      16.527   9.142  -6.866  0.00  0.00    +0.145 C 
BRANCH   5   6
ATOM      6  CB  VAL A   1      17.924   8.520  -6.517  0.00  0.00    +0.025 C 
ATOM      7  CG2 VAL A   1      17.874   7.524  -5.439  0.00  0.00    +0.002 C 
ATOM      8  CG1 VAL A   1      18.477   7.861  -7.705  0.00  0.00    +0.002 C 
ENDBRANCH   5   6
BRANCH   5   9
ATOM      9  N   VAL A   1      16.672  10.257  -7.785  0.00  0.00    -0.238 NA
ATOM     10  H   VAL A   1      17.633  10.593  -7.997  0.00  0.00    +0.142 HD
ENDBRANCH   5   9
ENDBRANCH   1   5
BRANCH   3  11
ATOM     11  CA  SER A   2      15.047  11.421  -4.188  0.00  0.00    +0.166 C 
BRANCH  11  12
ATOM     12  CB  SER A   2      13.595  11.200  -4.594  0.00  0.00    +0.229 C 
ATOM     13  OG  SER A   2      12.864  10.662  -3.789  0.00  0.00    -0.286 OA
ENDBRANCH  11  12
BRANCH  11  14
ATOM     14  C   SER A   2      15.264  12.897  -3.899  0.00  0.00    +0.165 C 
BRANCH  14  15
ATOM     15  O   SER A   2      14.510  13.327  -2.784  0.00  0.00    -0.380 OA
ATOM     16  H   SER A   2      14.676  14.290  -2.626  0.00  0.00    +0.211 HD
ENDBRANCH  14  15
ENDBRANCH  11  14
ENDBRANCH   3  11
TORSDOF 7
REMARK  Name = ../refined-set-2016/1n46/1n46_pocket.pdb
REMARK  251 active torsions:
REMARK  status: ('A' for Active; 'I' for Inactive)
REMARK    1  A    between atoms: _1  and  _3
REMARK    2  A    between atoms: _3  and  _4
REMARK    3  A    between atoms: _3  and  _6
REMARK    4  A    between atoms: _6  and  _7
REMARK    5  A    between atoms: _12  and  _14
REMARK    6  A    between atoms: _14  and  _15
REMARK    7  A    between atoms: _14  and  _17
REMARK    8  A    between atoms: _17  and  _18
REMARK    9  A    between atoms: _21  and  _23
REMARK   10  A    between atoms: _23  and  _24
REMARK   11  A    between atoms: _23  and  _26
REMARK   12  A    between atoms: _26  and  _27
REMARK   13  A    between atoms: _32  and  _34
REMARK   14  A    between atoms: _34  and  _35
REMARK   15  A    between atoms: _38  and  _40
REMARK   16  A    between atoms: _40  and  _41
REMARK   17  A    between atoms: _40  and  _43
REMARK   18  A    between atoms: _46  and  _48
REMARK   19  A    between atoms: _48  and  _49
REMARK   20  A    between atoms: _48  and  _51
REMARK   21  A    between atoms: _51  and  _52
REMARK   22  A    between atoms: _55  and  _57
REMARK   23  A    between atoms: _57  and  _58
REMARK   24  A    between atoms: _61  and  _63
REMARK   25  A    between atoms: _63  and  _64
REMARK   26  A    between atoms: _63  and  _66
REMARK   27  A    between atoms: _66  and  _67
REMARK   28  A    between atoms: _73  and  _75
REMARK   29  A    between atoms: _75  and  _76
REMARK   30  A    between atoms: _75  and  _78
REMARK   31  A    between atoms: _78  and  _79
REMARK   32  A    between atoms: _81  and  _83
REMARK   33  A    between atoms: _83  and  _84
REMARK   34  A    between atoms: _83  and  _86
REMARK   35  A    between atoms: _86  and  _87
REMARK   36  A    between atoms: _92  and  _94
REMARK   37  A    between atoms: _94  and  _95
REMARK   38  A    between atoms: _94  and  _97
REMARK   39  A    between atoms: _97  and  _98
REMARK   40  A    between atoms: _104  and  _106
REMARK   41  A    between atoms: _106  and  _107
REMARK   42  A    between atoms: _106  and  _109
REMARK   43  A    between atoms: _109  and  _110
REMARK   44  A    between atoms: _113  and  _115
REMARK   45  A    between atoms: _115  and  _116
REMARK   46  A    between atoms: _115  and  _118
REMARK   47  A    between atoms: _118  and  _119
REMARK   48  A    between atoms: _119  and  _120
REMARK   49  A    between atoms: _120  and  _121
REMARK   50  A    between atoms: _121  and  _122
REMARK   51  A    between atoms: _126  and  _128
REMARK   52  A    between atoms: _128  and  _129
REMARK   53  A    between atoms: _128  and  _131
REMARK   54  A    between atoms: _131  and  _132
REMARK   55  A    between atoms: _135  and  _137
REMARK   56  A    between atoms: _137  and  _138
REMARK   57  A    between atoms: _137  and  _140
REMARK   58  A    between atoms: _140  and  _141
REMARK   59  A    between atoms: _144  and  _146
REMARK   60  A    between atoms: _146  and  _147
REMARK   61  A    between atoms: _146  and  _149
REMARK   62  A    between atoms: _149  and  _150
REMARK   63  A    between atoms: _154  and  _155
REMARK   64  A    between atoms: _160  and  _162
REMARK   65  A    between atoms: _162  and  _163
REMARK   66  A    between atoms: _166  and  _168
REMARK   67  A    between atoms: _168  and  _169
REMARK   68  A    between atoms: _168  and  _171
REMARK   69  A    between atoms: _171  and  _172
REMARK   70  A    between atoms: _177  and  _178
REMARK   71  A    between atoms: _177  and  _180
REMARK   72  A    between atoms: _180  and  _181
REMARK   73  A    between atoms: _184  and  _186
REMARK   74  A    between atoms: _186  and  _187
REMARK   75  A    between atoms: _186  and  _189
REMARK   76  A    between atoms: _189  and  _190
REMARK   77  A    between atoms: _190  and  _191
REMARK   78  A    between atoms: _191  and  _192
REMARK   79  A    between atoms: _201  and  _203
REMARK   80  A    between atoms: _203  and  _204
REMARK   81  A    between atoms: _203  and  _206
REMARK   82  A    between atoms: _209  and  _211
REMARK   83  A    between atoms: _211  and  _212
REMARK   84  A    between atoms: _211  and  _214
REMARK   85  A    between atoms: _217  and  _219
REMARK   86  A    between atoms: _219  and  _220
REMARK   87  A    between atoms: _219  and  _222
REMARK   88  A    between atoms: _224  and  _226
REMARK   89  A    between atoms: _226  and  _227
REMARK   90  A    between atoms: _226  and  _229
REMARK   91  A    between atoms: _229  and  _230
REMARK   92  A    between atoms: _230  and  _231
REMARK   93  A    between atoms: _233  and  _235
REMARK   94  A    between atoms: _235  and  _236
REMARK   95  A    between atoms: _235  and  _238
REMARK   96  A    between atoms: _238  and  _239
REMARK   97  A    between atoms: _242  and  _244
REMARK   98  A    between atoms: _244  and  _245
REMARK   99  A    between atoms: _244  and  _247
REMARK  100  A    between atoms: _247  and  _248
REMARK  101  A    between atoms: _248  and  _249
REMARK  102  A    between atoms: _251  and  _253
REMARK  103  A    between atoms: _253  and  _254
REMARK  104  A    between atoms: _253  and  _256
REMARK  105  A    between atoms: _256  and  _257
REMARK  106  A    between atoms: _259  and  _261
REMARK  107  A    between atoms: _261  and  _262
REMARK  108  A    between atoms: _261  and  _264
REMARK  109  A    between atoms: _264  and  _265
REMARK  110  A    between atoms: _268  and  _270
REMARK  111  A    between atoms: _270  and  _271
REMARK  112  A    between atoms: _270  and  _273
REMARK  113  A    between atoms: _273  and  _274
REMARK  114  A    between atoms: _274  and  _275
REMARK  115  A    between atoms: _275  and  _276
REMARK  116  A    between atoms: _285  and  _287
REMARK  117  A    between atoms: _287  and  _288
REMARK  118  A    between atoms: _291  and  _293
REMARK  119  A    between atoms: _293  and  _294
REMARK  120  A    between atoms: _297  and  _299
REMARK  121  A    between atoms: _299  and  _300
REMARK  122  A    between atoms: _299  and  _302
REMARK  123  A    between atoms: _305  and  _307
REMARK  124  A    between atoms: _307  and  _308
REMARK  125  A    between atoms: _307  and  _310
REMARK  126  A    between atoms: _310  and  _311
REMARK  127  A    between atoms: _311  and  _312
REMARK  128  A    between atoms: _312  and  _313
REMARK  129  A    between atoms: _322  and  _324
REMARK  130  A    between atoms: _324  and  _325
REMARK  131  A    between atoms: _324  and  _327
REMARK  132  A    between atoms: _327  and  _328
REMARK  133  A    between atoms: _331  and  _333
REMARK  134  A    between atoms: _333  and  _334
REMARK  135  A    between atoms: _333  and  _336
REMARK  136  A    between atoms: _336  and  _337
REMARK  137  A    between atoms: _340  and  _342
REMARK  138  A    between atoms: _342  and  _343
REMARK  139  A    between atoms: _342  and  _345
REMARK  140  A    between atoms: _345  and  _346
REMARK  141  A    between atoms: _349  and  _351
REMARK  142  A    between atoms: _351  and  _352
REMARK  143  A    between atoms: _351  and  _354
REMARK  144  A    between atoms: _354  and  _355
REMARK  145  A    between atoms: _360  and  _362
REMARK  146  A    between atoms: _362  and  _363
REMARK  147  A    between atoms: _365  and  _367
REMARK  148  A    between atoms: _367  and  _368
REMARK  149  A    between atoms: _367  and  _370
REMARK  150  A    between atoms: _370  and  _371
REMARK  151  A    between atoms: _371  and  _372
REMARK  152  A    between atoms: _375  and  _377
REMARK  153  A    between atoms: _377  and  _378
REMARK  154  A    between atoms: _377  and  _380
REMARK  155  A    between atoms: _380  and  _381
REMARK  156  A    between atoms: _381  and  _382
REMARK  157  A    between atoms: _384  and  _386
REMARK  158  A    between atoms: _386  and  _387
REMARK  159  A    between atoms: _386  and  _389
REMARK  160  A    between atoms: _392  and  _394
REMARK  161  A    between atoms: _394  and  _395
REMARK  162  A    between atoms: _394  and  _397
REMARK  163  A    between atoms: _397  and  _398
REMARK  164  A    between atoms: _398  and  _399
REMARK  165  A    between atoms: _404  and  _406
REMARK  166  A    between atoms: _406  and  _407
REMARK  167  A    between atoms: _406  and  _409
REMARK  168  A    between atoms: _409  and  _410
REMARK  169  A    between atoms: _413  and  _415
REMARK  170  A    between atoms: _415  and  _416
REMARK  171  A    between atoms: _415  and  _418
REMARK  172  A    between atoms: _418  and  _419
REMARK  173  A    between atoms: _419  and  _420
REMARK  174  A    between atoms: _420  and  _421
REMARK  175  A    between atoms: _421  and  _422
REMARK  176  A    between atoms: _426  and  _428
REMARK  177  A    between atoms: _428  and  _429
REMARK  178  A    between atoms: _428  and  _431
REMARK  179  A    between atoms: _431  and  _432
REMARK  180  A    between atoms: _437  and  _439
REMARK  181  A    between atoms: _439  and  _440
REMARK  182  A    between atoms: _442  and  _444
REMARK  183  A    between atoms: _444  and  _445
REMARK  184  A    between atoms: _447  and  _449
REMARK  185  A    between atoms: _449  and  _450
REMARK  186  A    between atoms: _449  and  _452
REMARK  187  A    between atoms: _452  and  _453
REMARK  188  A    between atoms: _456  and  _458
REMARK  189  A    between atoms: _458  and  _459
REMARK  190  A    between atoms: _461  and  _463
REMARK  191  A    between atoms: _463  and  _464
REMARK  192  A    between atoms: _463  and  _466
REMARK  193  A    between atoms: _469  and  _471
REMARK  194  A    between atoms: _471  and  _472
REMARK  195  A    between atoms: _471  and  _474
REMARK  196  A    between atoms: _474  and  _475
REMARK  197  A    between atoms: _477  and  _479
REMARK  198  A    between atoms: _479  and  _480
REMARK  199  A    between atoms: _479  and  _482
REMARK  200  A    between atoms: _482  and  _483
REMARK  201  A    between atoms: _486  and  _488
REMARK  202  A    between atoms: _488  and  _489
REMARK  203  A    between atoms: _488  and  _491
REMARK  204  A    between atoms: _491  and  _492
REMARK  205  A    between atoms: _498  and  _500
REMARK  206  A    between atoms: _500  and  _501
REMARK  207  A    between atoms: _500  and  _503
REMARK  208  A    between atoms: _503  and  _504
REMARK  209  A    between atoms: _504  and  _505
REMARK  210  A    between atoms: _510  and  _512
REMARK  211  A    between atoms: _512  and  _513
REMARK  212  A    between atoms: _512  and  _515
REMARK  213  A    between atoms: _515  and  _516
REMARK  214  A    between atoms: _519  and  _521
REMARK  215  A    between atoms: _521  and  _522
REMARK  216  A    between atoms: _521  and  _524
REMARK  217  A    between atoms: _524  and  _525
REMARK  218  A    between atoms: _530  and  _532
REMARK  219  A    between atoms: _532  and  _533
REMARK  220  A    between atoms: _536  and  _538
REMARK  221  A    between atoms: _538  and  _539
REMARK  222  A    between atoms: _538  and  _541
REMARK  223  A    between atoms: _541  and  _542
REMARK  224  A    between atoms: _542  and  _543
REMARK  225  A    between atoms: _543  and  _544
REMARK  226  A    between atoms: _553  and  _555
REMARK  227  A    between atoms: _555  and  _556
REMARK  228  A    between atoms: _555  and  _558
REMARK  229  A    between atoms: _558  and  _559
REMARK  230  A    between atoms: _565  and  _567
REMARK  231  A    between atoms: _567  and  _568
REMARK  232  A    between atoms: _567  and  _570
REMARK  233  A    between atoms: _570  and  _571
REMARK  234  A    between atoms: _571  and  _572
REMARK  235  A    between atoms: _574  and  _576
REMARK  236  A    between atoms: _576  and  _577
REMARK  237  A    between atoms: _576  and  _579
REMARK  238  A    between atoms: _579  and  _580
REMARK  239  A    between atoms: _583  and  _585
REMARK  240  A    between atoms: _585  and  _586
REMARK  241  A    between atoms: _585  and  _588
REMARK  242  A    between atoms: _588  and  _589
REMARK  243  A    between atoms: _596  and  _597
REMARK  244  A    between atoms: _602  and  _604
REMARK  245  A    between atoms: _604  and  _605
REMARK  246  A    between atoms: _604  and  _607
REMARK  247  A    between atoms: _607  and  _608
REMARK  248  A    between atoms: _614  and  _616
REMARK  249  A    between atoms: _616  and  _617
REMARK  250  A    between atoms: _616  and  _619
REMARK  251  A    between atoms: _619  and  _620
REMARK                            x       y       z     vdW  Elec       q    Type
REMARK                         _______ _______ _______ _____ _____    ______ ____
ROOT
ATOM      1  C   ILE A   1      11.065   7.680  -2.253  0.00  0.00    +0.238 C 
ATOM      2  O   ILE A   1      10.315   7.004  -1.548  0.00  0.00    -0.274 OA
ATOM      3  N   PHE A   2      10.860   8.983  -2.406  0.00  0.00    -0.298 N 
ATOM      4  H   PHE A   2      11.574   9.564  -2.891  0.00  0.00    +0.150 HD
ENDROOT
BRANCH   1   5
ATOM      5  CA  ILE A   1      12.316   7.030  -2.920  0.00  0.00    +0.145 C 
BRANCH   5   6
ATOM      6  N   ILE A   1      12.487   7.532  -4.251  0.00  0.00    -0.238 NA
ATOM      7  H   ILE A   1      13.242   8.218  -4.452  0.00  0.00    +0.142 HD
ENDBRANCH   5   6
BRANCH   5   8
ATOM      8  CB  ILE A   1      13.607   7.206  -2.063  0.00  0.00    +0.025 C 
ATOM      9  CG2 ILE A   1      13.407   6.680  -0.743  0.00  0.00    +0.002 C 
BRANCH   8  10
ATOM     10  CG1 ILE A   1      14.810   6.560  -2.707  0.00  0.00    +0.002 C 
ATOM     11  CD1 ILE A   1      16.192   6.887  -2.085  0.00  0.00    +0.000 C 
ENDBRANCH   8  10
ENDBRANCH   5   8
ENDBRANCH   1   5
BRANCH   3  12
ATOM     12  CA  PHE A   2       9.628   9.613  -1.894  0.00  0.00    +0.141 C 
BRANCH  12  13
ATOM     13  C   PHE A   2       8.399   8.988  -2.465  0.00  0.00    +0.227 C 
ATOM     14  O   PHE A   2       7.440   8.641  -1.696  0.00  0.00    -0.286 OA
ENDBRANCH  12  13
BRANCH  12  15
ATOM     15  CB  PHE A   2       9.606  11.109  -2.145  0.00  0.00    +0.054 C 
BRANCH  15  16
ATOM     16  CG  PHE A   2      10.303  11.858  -1.030  0.00  0.00    -0.020 A 
ATOM     17  CD2 PHE A   2       9.570  12.503   0.000  0.00  0.00    -0.004 A 
ATOM     18  CE2 PHE A   2      10.230  13.126   1.044  0.00  0.00    -0.000 A 
ATOM     19  CZ  PHE A   2      11.659  13.103   1.081  0.00  0.00    -0.000 A 
ATOM     20  CE1 PHE A   2      12.365  12.444   0.102  0.00  0.00    -0.000 A 
ATOM     21  CD1 PHE A   2      11.673  11.834  -0.947  0.00  0.00    -0.004 A 
ENDBRANCH  15  16
ENDBRANCH  12  15
ENDBRANCH   3  12
TORSDOF 8
REMARK  Name = ../refined-set-2016/1n46/1n46_pocket.pdb
REMARK  251 active torsions:
REMARK  status: ('A' for Active; 'I' for Inactive)
REMARK    1  A    between atoms: _1  and  _3
REMARK    2  A    between atoms: _3  and  _4
REMARK    3  A    between atoms: _3  and  _6
REMARK    4  A    between atoms: _6  and  _7
REMARK    5  A    between atoms: _12  and  _14
REMARK    6  A    between atoms: _14  and  _15
REMARK    7  A    between atoms: _14  and  _17
REMARK    8  A    between atoms: _17  and  _18
REMARK    9  A    between atoms: _21  and  _23
REMARK   10  A    between atoms: _23  and  _24
REMARK   11  A    between atoms: _23  and  _26
REMARK   12  A    between atoms: _26  and  _27
REMARK   13  A    between atoms: _32  and  _34
REMARK   14  A    between atoms: _34  and  _35
REMARK   15  A    between atoms: _38  and  _40
REMARK   16  A    between atoms: _40  and  _41
REMARK   17  A    between atoms: _40  and  _43
REMARK   18  A    between atoms: _46  and  _48
REMARK   19  A    between atoms: _48  and  _49
REMARK   20  A    between atoms: _48  and  _51
REMARK   21  A    between atoms: _51  and  _52
REMARK   22  A    between atoms: _55  and  _57
REMARK   23  A    between atoms: _57  and  _58
REMARK   24  A    between atoms: _61  and  _63
REMARK   25  A    between atoms: _63  and  _64
REMARK   26  A    between atoms: _63  and  _66
REMARK   27  A    between atoms: _66  and  _67
REMARK   28  A    between atoms: _73  and  _75
REMARK   29  A    between atoms: _75  and  _76
REMARK   30  A    between atoms: _75  and  _78
REMARK   31  A    between atoms: _78  and  _79
REMARK   32  A    between atoms: _81  and  _83
REMARK   33  A    between atoms: _83  and  _84
REMARK   34  A    between atoms: _83  and  _86
REMARK   35  A    between atoms: _86  and  _87
REMARK   36  A    between atoms: _92  and  _94
REMARK   37  A    between atoms: _94  and  _95
REMARK   38  A    between atoms: _94  and  _97
REMARK   39  A    between atoms: _97  and  _98
REMARK   40  A    between atoms: _104  and  _106
REMARK   41  A    between atoms: _106  and  _107
REMARK   42  A    between atoms: _106  and  _109
REMARK   43  A    between atoms: _109  and  _110
REMARK   44  A    between atoms: _113  and  _115
REMARK   45  A    between atoms: _115  and  _116
REMARK   46  A    between atoms: _115  and  _118
REMARK   47  A    between atoms: _118  and  _119
REMARK   48  A    between atoms: _119  and  _120
REMARK   49  A    between atoms: _120  and  _121
REMARK   50  A    between atoms: _121  and  _122
REMARK   51  A    between atoms: _126  and  _128
REMARK   52  A    between atoms: _128  and  _129
REMARK   53  A    between atoms: _128  and  _131
REMARK   54  A    between atoms: _131  and  _132
REMARK   55  A    between atoms: _135  and  _137
REMARK   56  A    between atoms: _137  and  _138
REMARK   57  A    between atoms: _137  and  _140
REMARK   58  A    between atoms: _140  and  _141
REMARK   59  A    between atoms: _144  and  _146
REMARK   60  A    between atoms: _146  and  _147
REMARK   61  A    between atoms: _146  and  _149
REMARK   62  A    between atoms: _149  and  _150
REMARK   63  A    between atoms: _154  and  _155
REMARK   64  A    between atoms: _160  and  _162
REMARK   65  A    between atoms: _162  and  _163
REMARK   66  A    between atoms: _166  and  _168
REMARK   67  A    between atoms: _168  and  _169
REMARK   68  A    between atoms: _168  and  _171
REMARK   69  A    between atoms: _171  and  _172
REMARK   70  A    between atoms: _177  and  _178
REMARK   71  A    between atoms: _177  and  _180
REMARK   72  A    between atoms: _180  and  _181
REMARK   73  A    between atoms: _184  and  _186
REMARK   74  A    between atoms: _186  and  _187
REMARK   75  A    between atoms: _186  and  _189
REMARK   76  A    between atoms: _189  and  _190
REMARK   77  A    between atoms: _190  and  _191
REMARK   78  A    between atoms: _191  and  _192
REMARK   79  A    between atoms: _201  and  _203
REMARK   80  A    between atoms: _203  and  _204
REMARK   81  A    between atoms: _203  and  _206
REMARK   82  A    between atoms: _209  and  _211
REMARK   83  A    between atoms: _211  and  _212
REMARK   84  A    between atoms: _211  and  _214
REMARK   85  A    between atoms: _217  and  _219
REMARK   86  A    between atoms: _219  and  _220
REMARK   87  A    between atoms: _219  and  _222
REMARK   88  A    between atoms: _224  and  _226
REMARK   89  A    between atoms: _226  and  _227
REMARK   90  A    between atoms: _226  and  _229
REMARK   91  A    between atoms: _229  and  _230
REMARK   92  A    between atoms: _230  and  _231
REMARK   93  A    between atoms: _233  and  _235
REMARK   94  A    between atoms: _235  and  _236
REMARK   95  A    between atoms: _235  and  _238
REMARK   96  A    between atoms: _238  and  _239
REMARK   97  A    between atoms: _242  and  _244
REMARK   98  A    between atoms: _244  and  _245
REMARK   99  A    between atoms: _244  and  _247
REMARK  100  A    between atoms: _247  and  _248
REMARK  101  A    between atoms: _248  and  _249
REMARK  102  A    between atoms: _251  and  _253
REMARK  103  A    between atoms: _253  and  _254
REMARK  104  A    between atoms: _253  and  _256
REMARK  105  A    between atoms: _256  and  _257
REMARK  106  A    between atoms: _259  and  _261
REMARK  107  A    between atoms: _261  and  _262
REMARK  108  A    between atoms: _261  and  _264
REMARK  109  A    between atoms: _264  and  _265
REMARK  110  A    between atoms: _268  and  _270
REMARK  111  A    between atoms: _270  and  _271
REMARK  112  A    between atoms: _270  and  _273
REMARK  113  A    between atoms: _273  and  _274
REMARK  114  A    between atoms: _274  and  _275
REMARK  115  A    between atoms: _275  and  _276
REMARK  116  A    between atoms: _285  and  _287
REMARK  117  A    between atoms: _287  and  _288
REMARK  118  A    between atoms: _291  and  _293
REMARK  119  A    between atoms: _293  and  _294
REMARK  120  A    between atoms: _297  and  _299
REMARK  121  A    between atoms: _299  and  _300
REMARK  122  A    between atoms: _299  and  _302
REMARK  123  A    between atoms: _305  and  _307
REMARK  124  A    between atoms: _307  and  _308
REMARK  125  A    between atoms: _307  and  _310
REMARK  126  A    between atoms: _310  and  _311
REMARK  127  A    between atoms: _311  and  _312
REMARK  128  A    between atoms: _312  and  _313
REMARK  129  A    between atoms: _322  and  _324
REMARK  130  A    between atoms: _324  and  _325
REMARK  131  A    between atoms: _324  and  _327
REMARK  132  A    between atoms: _327  and  _328
REMARK  133  A    between atoms: _331  and  _333
REMARK  134  A    between atoms: _333  and  _334
REMARK  135  A    between atoms: _333  and  _336
REMARK  136  A    between atoms: _336  and  _337
REMARK  137  A    between atoms: _340  and  _342
REMARK  138  A    between atoms: _342  and  _343
REMARK  139  A    between atoms: _342  and  _345
REMARK  140  A    between atoms: _345  and  _346
REMARK  141  A    between atoms: _349  and  _351
REMARK  142  A    between atoms: _351  and  _352
REMARK  143  A    between atoms: _351  and  _354
REMARK  144  A    between atoms: _354  and  _355
REMARK  145  A    between atoms: _360  and  _362
REMARK  146  A    between atoms: _362  and  _363
REMARK  147  A    between atoms: _365  and  _367
REMARK  148  A    between atoms: _367  and  _368
REMARK  149  A    between atoms: _367  and  _370
REMARK  150  A    between atoms: _370  and  _371
REMARK  151  A    between atoms: _371  and  _372
REMARK  152  A    between atoms: _375  and  _377
REMARK  153  A    between atoms: _377  and  _378
REMARK  154  A    between atoms: _377  and  _380
REMARK  155  A    between atoms: _380  and  _381
REMARK  156  A    between atoms: _381  and  _382
REMARK  157  A    between atoms: _384  and  _386
REMARK  158  A    between atoms: _386  and  _387
REMARK  159  A    between atoms: _386  and  _389
REMARK  160  A    between atoms: _392  and  _394
REMARK  161  A    between atoms: _394  and  _395
REMARK  162  A    between atoms: _394  and  _397
REMARK  163  A    between atoms: _397  and  _398
REMARK  164  A    between atoms: _398  and  _399
REMARK  165  A    between atoms: _404  and  _406
REMARK  166  A    between atoms: _406  and  _407
REMARK  167  A    between atoms: _406  and  _409
REMARK  168  A    between atoms: _409  and  _410
REMARK  169  A    between atoms: _413  and  _415
REMARK  170  A    between atoms: _415  and  _416
REMARK  171  A    between atoms: _415  and  _418
REMARK  172  A    between atoms: _418  and  _419
REMARK  173  A    between atoms: _419  and  _420
REMARK  174  A    between atoms: _420  and  _421
REMARK  175  A    between atoms: _421  and  _422
REMARK  176  A    between atoms: _426  and  _428
REMARK  177  A    between atoms: _428  and  _429
REMARK  178  A    between atoms: _428  and  _431
REMARK  179  A    between atoms: _431  and  _432
REMARK  180  A    between atoms: _437  and  _439
REMARK  181  A    between atoms: _439  and  _440
REMARK  182  A    between atoms: _442  and  _444
REMARK  183  A    between atoms: _444  and  _445
REMARK  184  A    between atoms: _447  and  _449
REMARK  185  A    between atoms: _449  and  _450
REMARK  186  A    between atoms: _449  and  _452
REMARK  187  A    between atoms: _452  and  _453
REMARK  188  A    between atoms: _456  and  _458
REMARK  189  A    between atoms: _458  and  _459
REMARK  190  A    between atoms: _461  and  _463
REMARK  191  A    between atoms: _463  and  _464
REMARK  192  A    between atoms: _463  and  _466
REMARK  193  A    between atoms: _469  and  _471
REMARK  194  A    between atoms: _471  and  _472
REMARK  195  A    between atoms: _471  and  _474
REMARK  196  A    between atoms: _474  and  _475
REMARK  197  A    between atoms: _477  and  _479
REMARK  198  A    between atoms: _479  and  _480
REMARK  199  A    between atoms: _479  and  _482
REMARK  200  A    between atoms: _482  and  _483
REMARK  201  A    between atoms: _486  and  _488
REMARK  202  A    between atoms: _488  and  _489
REMARK  203  A    between atoms: _488  and  _491
REMARK  204  A    between atoms: _491  and  _492
REMARK  205  A    between atoms: _498  and  _500
REMARK  206  A    between atoms: _500  and  _501
REMARK  207  A    between atoms: _500  and  _503
REMARK  208  A    between atoms: _503  and  _504
REMARK  209  A    between atoms: _504  and  _505
REMARK  210  A    between atoms: _510  and  _512
REMARK  211  A    between atoms: _512  and  _513
REMARK  212  A    between atoms: _512  and  _515
REMARK  213  A    between atoms: _515  and  _516
REMARK  214  A    between atoms: _519  and  _521
REMARK  215  A    between atoms: _521  and  _522
REMARK  216  A    between atoms: _521  and  _524
REMARK  217  A    between atoms: _524  and  _525
REMARK  218  A    between atoms: _530  and  _532
REMARK  219  A    between atoms: _532  and  _533
REMARK  220  A    between atoms: _536  and  _538
REMARK  221  A    between atoms: _538  and  _539
REMARK  222  A    between atoms: _538  and  _541
REMARK  223  A    between atoms: _541  and  _542
REMARK  224  A    between atoms: _542  and  _543
REMARK  225  A    between atoms: _543  and  _544
REMARK  226  A    between atoms: _553  and  _555
REMARK  227  A    between atoms: _555  and  _556
REMARK  228  A    between atoms: _555  and  _558
REMARK  229  A    between atoms: _558  and  _559
REMARK  230  A    between atoms: _565  and  _567
REMARK  231  A    between atoms: _567  and  _568
REMARK  232  A    between atoms: _567  and  _570
REMARK  233  A    between atoms: _570  and  _571
REMARK  234  A    between atoms: _571  and  _572
REMARK  235  A    between atoms: _574  and  _576
REMARK  236  A    between atoms: _576  and  _577
REMARK  237  A    between atoms: _576  and  _579
REMARK  238  A    between atoms: _579  and  _580
REMARK  239  A    between atoms: _583  and  _585
REMARK  240  A    between atoms: _585  and  _586
REMARK  241  A    between atoms: _585  and  _588
REMARK  242  A    between atoms: _588  and  _589
REMARK  243  A    between atoms: _596  and  _597
REMARK  244  A    between atoms: _602  and  _604
REMARK  245  A    between atoms: _604  and  _605
REMARK  246  A    between atoms: _604  and  _607
REMARK  247  A    between atoms: _607  and  _608
REMARK  248  A    between atoms: _614  and  _616
REMARK  249  A    between atoms: _616  and  _617
REMARK  250  A    between atoms: _616  and  _619
REMARK  251  A    between atoms: _619  and  _620
REMARK                            x       y       z     vdW  Elec       q    Type
REMARK                         _______ _______ _______ _____ _____    ______ ____
ROOT
ATOM      1  CB  GLN A   1      15.857  -6.559   3.537  0.00  0.00    +0.035 C 
ENDROOT
BRANCH   1   2
ATOM      2  CA  GLN A   1      15.411  -7.111   2.217  0.00  0.00    +0.134 C 
BRANCH   2   3
ATOM      3  N   GLN A   1      13.950  -7.321   2.154  0.00  0.00    -0.239 NA
ATOM      4  H   GLN A   1      13.367  -7.129   2.994  0.00  0.00    +0.142 HD
ENDBRANCH   2   3
BRANCH   2   5
ATOM      5  C   GLN A   1      16.173  -8.406   1.905  0.00  0.00    +0.224 C 
ATOM      6  O   GLN A   1      17.143  -8.412   1.131  0.00  0.00    -0.287 OA
ENDBRANCH   2   5
ENDBRANCH   1   2
BRANCH   1   7
ATOM      7  CG  GLN A   1      15.264  -5.192   3.900  0.00  0.00    +0.087 C 
BRANCH   7   8
ATOM      8  CD  GLN A   1      15.581  -4.659   5.334  0.00  0.00    +0.219 C 
ATOM      9  NE2 GLN A   1      16.040  -5.507   6.252  0.00  0.00    -0.329 N 
ATOM     10 HE21 GLN A   1      16.218  -5.177   7.222  0.00  0.00    +0.145 HD
ATOM     11 HE22 GLN A   1      16.221  -6.499   5.999  0.00  0.00    +0.145 HD
ATOM     12  OE1 GLN A   1      15.353  -3.476   5.590  0.00  0.00    -0.275 OA
ENDBRANCH   7   8
ENDBRANCH   1   7
TORSDOF 5
REMARK  Name = ../refined-set-2016/1n46/1n46_pocket.pdb
REMARK  251 active torsions:
REMARK  status: ('A' for Active; 'I' for Inactive)
REMARK    1  A    between atoms: _1  and  _3
REMARK    2  A    between atoms: _3  and  _4
REMARK    3  A    between atoms: _3  and  _6
REMARK    4  A    between atoms: _6  and  _7
REMARK    5  A    between atoms: _12  and  _14
REMARK    6  A    between atoms: _14  and  _15
REMARK    7  A    between atoms: _14  and  _17
REMARK    8  A    between atoms: _17  and  _18
REMARK    9  A    between atoms: _21  and  _23
REMARK   10  A    between atoms: _23  and  _24
REMARK   11  A    between atoms: _23  and  _26
REMARK   12  A    between atoms: _26  and  _27
REMARK   13  A    between atoms: _32  and  _34
REMARK   14  A    between atoms: _34  and  _35
REMARK   15  A    between atoms: _38  and  _40
REMARK   16  A    between atoms: _40  and  _41
REMARK   17  A    between atoms: _40  and  _43
REMARK   18  A    between atoms: _46  and  _48
REMARK   19  A    between atoms: _48  and  _49
REMARK   20  A    between atoms: _48  and  _51
REMARK   21  A    between atoms: _51  and  _52
REMARK   22  A    between atoms: _55  and  _57
REMARK   23  A    between atoms: _57  and  _58
REMARK   24  A    between atoms: _61  and  _63
REMARK   25  A    between atoms: _63  and  _64
REMARK   26  A    between atoms: _63  and  _66
REMARK   27  A    between atoms: _66  and  _67
REMARK   28  A    between atoms: _73  and  _75
REMARK   29  A    between atoms: _75  and  _76
REMARK   30  A    between atoms: _75  and  _78
REMARK   31  A    between atoms: _78  and  _79
REMARK   32  A    between atoms: _81  and  _83
REMARK   33  A    between atoms: _83  and  _84
REMARK   34  A    between atoms: _83  and  _86
REMARK   35  A    between atoms: _86  and  _87
REMARK   36  A    between atoms: _92  and  _94
REMARK   37  A    between atoms: _94  and  _95
REMARK   38  A    between atoms: _94  and  _97
REMARK   39  A    between atoms: _97  and  _98
REMARK   40  A    between atoms: _104  and  _106
REMARK   41  A    between atoms: _106  and  _107
REMARK   42  A    between atoms: _106  and  _109
REMARK   43  A    between atoms: _109  and  _110
REMARK   44  A    between atoms: _113  and  _115
REMARK   45  A    between atoms: _115  and  _116
REMARK   46  A    between atoms: _115  and  _118
REMARK   47  A    between atoms: _118  and  _119
REMARK   48  A    between atoms: _119  and  _120
REMARK   49  A    between atoms: _120  and  _121
REMARK   50  A    between atoms: _121  and  _122
REMARK   51  A    between atoms: _126  and  _128
REMARK   52  A    between atoms: _128  and  _129
REMARK   53  A    between atoms: _128  and  _131
REMARK   54  A    between atoms: _131  and  _132
REMARK   55  A    between atoms: _135  and  _137
REMARK   56  A    between atoms: _137  and  _138
REMARK   57  A    between atoms: _137  and  _140
REMARK   58  A    between atoms: _140  and  _141
REMARK   59  A    between atoms: _144  and  _146
REMARK   60  A    between atoms: _146  and  _147
REMARK   61  A    between atoms: _146  and  _149
REMARK   62  A    between atoms: _149  and  _150
REMARK   63  A    between atoms: _154  and  _155
REMARK   64  A    between atoms: _160  and  _162
REMARK   65  A    between atoms: _162  and  _163
REMARK   66  A    between atoms: _166  and  _168
REMARK   67  A    between atoms: _168  and  _169
REMARK   68  A    between atoms: _168  and  _171
REMARK   69  A    between atoms: _171  and  _172
REMARK   70  A    between atoms: _177  and  _178
REMARK   71  A    between atoms: _177  and  _180
REMARK   72  A    between atoms: _180  and  _181
REMARK   73  A    between atoms: _184  and  _186
REMARK   74  A    between atoms: _186  and  _187
REMARK   75  A    between atoms: _186  and  _189
REMARK   76  A    between atoms: _189  and  _190
REMARK   77  A    between atoms: _190  and  _191
REMARK   78  A    between atoms: _191  and  _192
REMARK   79  A    between atoms: _201  and  _203
REMARK   80  A    between atoms: _203  and  _204
REMARK   81  A    between atoms: _203  and  _206
REMARK   82  A    between atoms: _209  and  _211
REMARK   83  A    between atoms: _211  and  _212
REMARK   84  A    between atoms: _211  and  _214
REMARK   85  A    between atoms: _217  and  _219
REMARK   86  A    between atoms: _219  and  _220
REMARK   87  A    between atoms: _219  and  _222
REMARK   88  A    between atoms: _224  and  _226
REMARK   89  A    between atoms: _226  and  _227
REMARK   90  A    between atoms: _226  and  _229
REMARK   91  A    between atoms: _229  and  _230
REMARK   92  A    between atoms: _230  and  _231
REMARK   93  A    between atoms: _233  and  _235
REMARK   94  A    between atoms: _235  and  _236
REMARK   95  A    between atoms: _235  and  _238
REMARK   96  A    between atoms: _238  and  _239
REMARK   97  A    between atoms: _242  and  _244
REMARK   98  A    between atoms: _244  and  _245
REMARK   99  A    between atoms: _244  and  _247
REMARK  100  A    between atoms: _247  and  _248
REMARK  101  A    between atoms: _248  and  _249
REMARK  102  A    between atoms: _251  and  _253
REMARK  103  A    between atoms: _253  and  _254
REMARK  104  A    between atoms: _253  and  _256
REMARK  105  A    between atoms: _256  and  _257
REMARK  106  A    between atoms: _259  and  _261
REMARK  107  A    between atoms: _261  and  _262
REMARK  108  A    between atoms: _261  and  _264
REMARK  109  A    between atoms: _264  and  _265
REMARK  110  A    between atoms: _268  and  _270
REMARK  111  A    between atoms: _270  and  _271
REMARK  112  A    between atoms: _270  and  _273
REMARK  113  A    between atoms: _273  and  _274
REMARK  114  A    between atoms: _274  and  _275
REMARK  115  A    between atoms: _275  and  _276
REMARK  116  A    between atoms: _285  and  _287
REMARK  117  A    between atoms: _287  and  _288
REMARK  118  A    between atoms: _291  and  _293
REMARK  119  A    between atoms: _293  and  _294
REMARK  120  A    between atoms: _297  and  _299
REMARK  121  A    between atoms: _299  and  _300
REMARK  122  A    between atoms: _299  and  _302
REMARK  123  A    between atoms: _305  and  _307
REMARK  124  A    between atoms: _307  and  _308
REMARK  125  A    between atoms: _307  and  _310
REMARK  126  A    between atoms: _310  and  _311
REMARK  127  A    between atoms: _311  and  _312
REMARK  128  A    between atoms: _312  and  _313
REMARK  129  A    between atoms: _322  and  _324
REMARK  130  A    between atoms: _324  and  _325
REMARK  131  A    between atoms: _324  and  _327
REMARK  132  A    between atoms: _327  and  _328
REMARK  133  A    between atoms: _331  and  _333
REMARK  134  A    between atoms: _333  and  _334
REMARK  135  A    between atoms: _333  and  _336
REMARK  136  A    between atoms: _336  and  _337
REMARK  137  A    between atoms: _340  and  _342
REMARK  138  A    between atoms: _342  and  _343
REMARK  139  A    between atoms: _342  and  _345
REMARK  140  A    between atoms: _345  and  _346
REMARK  141  A    between atoms: _349  and  _351
REMARK  142  A    between atoms: _351  and  _352
REMARK  143  A    between atoms: _351  and  _354
REMARK  144  A    between atoms: _354  and  _355
REMARK  145  A    between atoms: _360  and  _362
REMARK  146  A    between atoms: _362  and  _363
REMARK  147  A    between atoms: _365  and  _367
REMARK  148  A    between atoms: _367  and  _368
REMARK  149  A    between atoms: _367  and  _370
REMARK  150  A    between atoms: _370  and  _371
REMARK  151  A    between atoms: _371  and  _372
REMARK  152  A    between atoms: _375  and  _377
REMARK  153  A    between atoms: _377  and  _378
REMARK  154  A    between atoms: _377  and  _380
REMARK  155  A    between atoms: _380  and  _381
REMARK  156  A    between atoms: _381  and  _382
REMARK  157  A    between atoms: _384  and  _386
REMARK  158  A    between atoms: _386  and  _387
REMARK  159  A    between atoms: _386  and  _389
REMARK  160  A    between atoms: _392  and  _394
REMARK  161  A    between atoms: _394  and  _395
REMARK  162  A    between atoms: _394  and  _397
REMARK  163  A    between atoms: _397  and  _398
REMARK  164  A    between atoms: _398  and  _399
REMARK  165  A    between atoms: _404  and  _406
REMARK  166  A    between atoms: _406  and  _407
REMARK  167  A    between atoms: _406  and  _409
REMARK  168  A    between atoms: _409  and  _410
REMARK  169  A    between atoms: _413  and  _415
REMARK  170  A    between atoms: _415  and  _416
REMARK  171  A    between atoms: _415  and  _418
REMARK  172  A    between atoms: _418  and  _419
REMARK  173  A    between atoms: _419  and  _420
REMARK  174  A    between atoms: _420  and  _421
REMARK  175  A    between atoms: _421  and  _422
REMARK  176  A    between atoms: _426  and  _428
REMARK  177  A    between atoms: _428  and  _429
REMARK  178  A    between atoms: _428  and  _431
REMARK  179  A    between atoms: _431  and  _432
REMARK  180  A    between atoms: _437  and  _439
REMARK  181  A    between atoms: _439  and  _440
REMARK  182  A    between atoms: _442  and  _444
REMARK  183  A    between atoms: _444  and  _445
REMARK  184  A    between atoms: _447  and  _449
REMARK  185  A    between atoms: _449  and  _450
REMARK  186  A    between atoms: _449  and  _452
REMARK  187  A    between atoms: _452  and  _453
REMARK  188  A    between atoms: _456  and  _458
REMARK  189  A    between atoms: _458  and  _459
REMARK  190  A    between atoms: _461  and  _463
REMARK  191  A    between atoms: _463  and  _464
REMARK  192  A    between atoms: _463  and  _466
REMARK  193  A    between atoms: _469  and  _471
REMARK  194  A    between atoms: _471  and  _472
REMARK  195  A    between atoms: _471  and  _474
REMARK  196  A    between atoms: _474  and  _475
REMARK  197  A    between atoms: _477  and  _479
REMARK  198  A    between atoms: _479  and  _480
REMARK  199  A    between atoms: _479  and  _482
REMARK  200  A    between atoms: _482  and  _483
REMARK  201  A    between atoms: _486  and  _488
REMARK  202  A    between atoms: _488  and  _489
REMARK  203  A    between atoms: _488  and  _491
REMARK  204  A    between atoms: _491  and  _492
REMARK  205  A    between atoms: _498  and  _500
REMARK  206  A    between atoms: _500  and  _501
REMARK  207  A    between atoms: _500  and  _503
REMARK  208  A    between atoms: _503  and  _504
REMARK  209  A    between atoms: _504  and  _505
REMARK  210  A    between atoms: _510  and  _512
REMARK  211  A    between atoms: _512  and  _513
REMARK  212  A    between atoms: _512  and  _515
REMARK  213  A    between atoms: _515  and  _516
REMARK  214  A    between atoms: _519  and  _521
REMARK  215  A    between atoms: _521  and  _522
REMARK  216  A    between atoms: _521  and  _524
REMARK  217  A    between atoms: _524  and  _525
REMARK  218  A    between atoms: _530  and  _532
REMARK  219  A    between atoms: _532  and  _533
REMARK  220  A    between atoms: _536  and  _538
REMARK  221  A    between atoms: _538  and  _539
REMARK  222  A    between atoms: _538  and  _541
REMARK  223  A    between atoms: _541  and  _542
REMARK  224  A    between atoms: _542  and  _543
REMARK  225  A    between atoms: _543  and  _544
REMARK  226  A    between atoms: _553  and  _555
REMARK  227  A    between atoms: _555  and  _556
REMARK  228  A    between atoms: _555  and  _558
REMARK  229  A    between atoms: _558  and  _559
REMARK  230  A    between atoms: _565  and  _567
REMARK  231  A    between atoms: _567  and  _568
REMARK  232  A    between atoms: _567  and  _570
REMARK  233  A    between atoms: _570  and  _571
REMARK  234  A    between atoms: _571  and  _572
REMARK  235  A    between atoms: _574  and  _576
REMARK  236  A    between atoms: _576  and  _577
REMARK  237  A    between atoms: _576  and  _579
REMARK  238  A    between atoms: _579  and  _580
REMARK  239  A    between atoms: _583  and  _585
REMARK  240  A    between atoms: _585  and  _586
REMARK  241  A    between atoms: _585  and  _588
REMARK  242  A    between atoms: _588  and  _589
REMARK  243  A    between atoms: _596  and  _597
REMARK  244  A    between atoms: _602  and  _604
REMARK  245  A    between atoms: _604  and  _605
REMARK  246  A    between atoms: _604  and  _607
REMARK  247  A    between atoms: _607  and  _608
REMARK  248  A    between atoms: _614  and  _616
REMARK  249  A    between atoms: _616  and  _617
REMARK  250  A    between atoms: _616  and  _619
REMARK  251  A    between atoms: _619  and  _620
REMARK                            x       y       z     vdW  Elec       q    Type
REMARK                         _______ _______ _______ _____ _____    ______ ____
ROOT
ATOM      1  CA  ILE A   1      16.627   2.820  -7.735  0.00  0.00    +0.133 C 
ENDROOT
BRANCH   1   2
ATOM      2  N   ILE A   1      16.140   1.745  -8.618  0.00  0.00    -0.239 NA
ATOM      3  H   ILE A   1      15.342   1.161  -8.295  0.00  0.00    +0.142 HD
ENDBRANCH   1   2
BRANCH   1   4
ATOM      4  CB  ILE A   1      15.762   2.933  -6.424  0.00  0.00    +0.023 C 
ATOM      5  CG2 ILE A   1      16.489   3.696  -5.340  0.00  0.00    +0.002 C 
BRANCH   4   6
ATOM      6  CG1 ILE A   1      14.446   3.618  -6.748  0.00  0.00    +0.002 C 
ATOM      7  CD1 ILE A   1      13.306   3.399  -5.721  0.00  0.00    +0.000 C 
ENDBRANCH   4   6
ENDBRANCH   1   4
BRANCH   1   8
ATOM      8  C   ILE A   1      18.073   2.584  -7.435  0.00  0.00    +0.224 C 
ATOM      9  O   ILE A   1      18.869   3.542  -7.485  0.00  0.00    -0.287 OA
ENDBRANCH   1   8
TORSDOF 4
REMARK  Name = ../refined-set-2016/1n46/1n46_pocket.pdb
REMARK  251 active torsions:
REMARK  status: ('A' for Active; 'I' for Inactive)
REMARK    1  A    between atoms: _1  and  _3
REMARK    2  A    between atoms: _3  and  _4
REMARK    3  A    between atoms: _3  and  _6
REMARK    4  A    between atoms: _6  and  _7
REMARK    5  A    between atoms: _12  and  _14
REMARK    6  A    between atoms: _14  and  _15
REMARK    7  A    between atoms: _14  and  _17
REMARK    8  A    between atoms: _17  and  _18
REMARK    9  A    between atoms: _21  and  _23
REMARK   10  A    between atoms: _23  and  _24
REMARK   11  A    between atoms: _23  and  _26
REMARK   12  A    between atoms: _26  and  _27
REMARK   13  A    between atoms: _32  and  _34
REMARK   14  A    between atoms: _34  and  _35
REMARK   15  A    between atoms: _38  and  _40
REMARK   16  A    between atoms: _40  and  _41
REMARK   17  A    between atoms: _40  and  _43
REMARK   18  A    between atoms: _46  and  _48
REMARK   19  A    between atoms: _48  and  _49
REMARK   20  A    between atoms: _48  and  _51
REMARK   21  A    between atoms: _51  and  _52
REMARK   22  A    between atoms: _55  and  _57
REMARK   23  A    between atoms: _57  and  _58
REMARK   24  A    between atoms: _61  and  _63
REMARK   25  A    between atoms: _63  and  _64
REMARK   26  A    between atoms: _63  and  _66
REMARK   27  A    between atoms: _66  and  _67
REMARK   28  A    between atoms: _73  and  _75
REMARK   29  A    between atoms: _75  and  _76
REMARK   30  A    between atoms: _75  and  _78
REMARK   31  A    between atoms: _78  and  _79
REMARK   32  A    between atoms: _81  and  _83
REMARK   33  A    between atoms: _83  and  _84
REMARK   34  A    between atoms: _83  and  _86
REMARK   35  A    between atoms: _86  and  _87
REMARK   36  A    between atoms: _92  and  _94
REMARK   37  A    between atoms: _94  and  _95
REMARK   38  A    between atoms: _94  and  _97
REMARK   39  A    between atoms: _97  and  _98
REMARK   40  A    between atoms: _104  and  _106
REMARK   41  A    between atoms: _106  and  _107
REMARK   42  A    between atoms: _106  and  _109
REMARK   43  A    between atoms: _109  and  _110
REMARK   44  A    between atoms: _113  and  _115
REMARK   45  A    between atoms: _115  and  _116
REMARK   46  A    between atoms: _115  and  _118
REMARK   47  A    between atoms: _118  and  _119
REMARK   48  A    between atoms: _119  and  _120
REMARK   49  A    between atoms: _120  and  _121
REMARK   50  A    between atoms: _121  and  _122
REMARK   51  A    between atoms: _126  and  _128
REMARK   52  A    between atoms: _128  and  _129
REMARK   53  A    between atoms: _128  and  _131
REMARK   54  A    between atoms: _131  and  _132
REMARK   55  A    between atoms: _135  and  _137
REMARK   56  A    between atoms: _137  and  _138
REMARK   57  A    between atoms: _137  and  _140
REMARK   58  A    between atoms: _140  and  _141
REMARK   59  A    between atoms: _144  and  _146
REMARK   60  A    between atoms: _146  and  _147
REMARK   61  A    between atoms: _146  and  _149
REMARK   62  A    between atoms: _149  and  _150
REMARK   63  A    between atoms: _154  and  _155
REMARK   64  A    between atoms: _160  and  _162
REMARK   65  A    between atoms: _162  and  _163
REMARK   66  A    between atoms: _166  and  _168
REMARK   67  A    between atoms: _168  and  _169
REMARK   68  A    between atoms: _168  and  _171
REMARK   69  A    between atoms: _171  and  _172
REMARK   70  A    between atoms: _177  and  _178
REMARK   71  A    between atoms: _177  and  _180
REMARK   72  A    between atoms: _180  and  _181
REMARK   73  A    between atoms: _184  and  _186
REMARK   74  A    between atoms: _186  and  _187
REMARK   75  A    between atoms: _186  and  _189
REMARK   76  A    between atoms: _189  and  _190
REMARK   77  A    between atoms: _190  and  _191
REMARK   78  A    between atoms: _191  and  _192
REMARK   79  A    between atoms: _201  and  _203
REMARK   80  A    between atoms: _203  and  _204
REMARK   81  A    between atoms: _203  and  _206
REMARK   82  A    between atoms: _209  and  _211
REMARK   83  A    between atoms: _211  and  _212
REMARK   84  A    between atoms: _211  and  _214
REMARK   85  A    between atoms: _217  and  _219
REMARK   86  A    between atoms: _219  and  _220
REMARK   87  A    between atoms: _219  and  _222
REMARK   88  A    between atoms: _224  and  _226
REMARK   89  A    between atoms: _226  and  _227
REMARK   90  A    between atoms: _226  and  _229
REMARK   91  A    between atoms: _229  and  _230
REMARK   92  A    between atoms: _230  and  _231
REMARK   93  A    between atoms: _233  and  _235
REMARK   94  A    between atoms: _235  and  _236
REMARK   95  A    between atoms: _235  and  _238
REMARK   96  A    between atoms: _238  and  _239
REMARK   97  A    between atoms: _242  and  _244
REMARK   98  A    between atoms: _244  and  _245
REMARK   99  A    between atoms: _244  and  _247
REMARK  100  A    between atoms: _247  and  _248
REMARK  101  A    between atoms: _248  and  _249
REMARK  102  A    between atoms: _251  and  _253
REMARK  103  A    between atoms: _253  and  _254
REMARK  104  A    between atoms: _253  and  _256
REMARK  105  A    between atoms: _256  and  _257
REMARK  106  A    between atoms: _259  and  _261
REMARK  107  A    between atoms: _261  and  _262
REMARK  108  A    between atoms: _261  and  _264
REMARK  109  A    between atoms: _264  and  _265
REMARK  110  A    between atoms: _268  and  _270
REMARK  111  A    between atoms: _270  and  _271
REMARK  112  A    between atoms: _270  and  _273
REMARK  113  A    between atoms: _273  and  _274
REMARK  114  A    between atoms: _274  and  _275
REMARK  115  A    between atoms: _275  and  _276
REMARK  116  A    between atoms: _285  and  _287
REMARK  117  A    between atoms: _287  and  _288
REMARK  118  A    between atoms: _291  and  _293
REMARK  119  A    between atoms: _293  and  _294
REMARK  120  A    between atoms: _297  and  _299
REMARK  121  A    between atoms: _299  and  _300
REMARK  122  A    between atoms: _299  and  _302
REMARK  123  A    between atoms: _305  and  _307
REMARK  124  A    between atoms: _307  and  _308
REMARK  125  A    between atoms: _307  and  _310
REMARK  126  A    between atoms: _310  and  _311
REMARK  127  A    between atoms: _311  and  _312
REMARK  128  A    between atoms: _312  and  _313
REMARK  129  A    between atoms: _322  and  _324
REMARK  130  A    between atoms: _324  and  _325
REMARK  131  A    between atoms: _324  and  _327
REMARK  132  A    between atoms: _327  and  _328
REMARK  133  A    between atoms: _331  and  _333
REMARK  134  A    between atoms: _333  and  _334
REMARK  135  A    between atoms: _333  and  _336
REMARK  136  A    between atoms: _336  and  _337
REMARK  137  A    between atoms: _340  and  _342
REMARK  138  A    between atoms: _342  and  _343
REMARK  139  A    between atoms: _342  and  _345
REMARK  140  A    between atoms: _345  and  _346
REMARK  141  A    between atoms: _349  and  _351
REMARK  142  A    between atoms: _351  and  _352
REMARK  143  A    between atoms: _351  and  _354
REMARK  144  A    between atoms: _354  and  _355
REMARK  145  A    between atoms: _360  and  _362
REMARK  146  A    between atoms: _362  and  _363
REMARK  147  A    between atoms: _365  and  _367
REMARK  148  A    between atoms: _367  and  _368
REMARK  149  A    between atoms: _367  and  _370
REMARK  150  A    between atoms: _370  and  _371
REMARK  151  A    between atoms: _371  and  _372
REMARK  152  A    between atoms: _375  and  _377
REMARK  153  A    between atoms: _377  and  _378
REMARK  154  A    between atoms: _377  and  _380
REMARK  155  A    between atoms: _380  and  _381
REMARK  156  A    between atoms: _381  and  _382
REMARK  157  A    between atoms: _384  and  _386
REMARK  158  A    between atoms: _386  and  _387
REMARK  159  A    between atoms: _386  and  _389
REMARK  160  A    between atoms: _392  and  _394
REMARK  161  A    between atoms: _394  and  _395
REMARK  162  A    between atoms: _394  and  _397
REMARK  163  A    between atoms: _397  and  _398
REMARK  164  A    between atoms: _398  and  _399
REMARK  165  A    between atoms: _404  and  _406
REMARK  166  A    between atoms: _406  and  _407
REMARK  167  A    between atoms: _406  and  _409
REMARK  168  A    between atoms: _409  and  _410
REMARK  169  A    between atoms: _413  and  _415
REMARK  170  A    between atoms: _415  and  _416
REMARK  171  A    between atoms: _415  and  _418
REMARK  172  A    between atoms: _418  and  _419
REMARK  173  A    between atoms: _419  and  _420
REMARK  174  A    between atoms: _420  and  _421
REMARK  175  A    between atoms: _421  and  _422
REMARK  176  A    between atoms: _426  and  _428
REMARK  177  A    between atoms: _428  and  _429
REMARK  178  A    between atoms: _428  and  _431
REMARK  179  A    between atoms: _431  and  _432
REMARK  180  A    between atoms: _437  and  _439
REMARK  181  A    between atoms: _439  and  _440
REMARK  182  A    between atoms: _442  and  _444
REMARK  183  A    between atoms: _444  and  _445
REMARK  184  A    between atoms: _447  and  _449
REMARK  185  A    between atoms: _449  and  _450
REMARK  186  A    between atoms: _449  and  _452
REMARK  187  A    between atoms: _452  and  _453
REMARK  188  A    between atoms: _456  and  _458
REMARK  189  A    between atoms: _458  and  _459
REMARK  190  A    between atoms: _461  and  _463
REMARK  191  A    between atoms: _463  and  _464
REMARK  192  A    between atoms: _463  and  _466
REMARK  193  A    between atoms: _469  and  _471
REMARK  194  A    between atoms: _471  and  _472
REMARK  195  A    between atoms: _471  and  _474
REMARK  196  A    between atoms: _474  and  _475
REMARK  197  A    between atoms: _477  and  _479
REMARK  198  A    between atoms: _479  and  _480
REMARK  199  A    between atoms: _479  and  _482
REMARK  200  A    between atoms: _482  and  _483
REMARK  201  A    between atoms: _486  and  _488
REMARK  202  A    between atoms: _488  and  _489
REMARK  203  A    between atoms: _488  and  _491
REMARK  204  A    between atoms: _491  and  _492
REMARK  205  A    between atoms: _498  and  _500
REMARK  206  A    between atoms: _500  and  _501
REMARK  207  A    between atoms: _500  and  _503
REMARK  208  A    between atoms: _503  and  _504
REMARK  209  A    between atoms: _504  and  _505
REMARK  210  A    between atoms: _510  and  _512
REMARK  211  A    between atoms: _512  and  _513
REMARK  212  A    between atoms: _512  and  _515
REMARK  213  A    between atoms: _515  and  _516
REMARK  214  A    between atoms: _519  and  _521
REMARK  215  A    between atoms: _521  and  _522
REMARK  216  A    between atoms: _521  and  _524
REMARK  217  A    between atoms: _524  and  _525
REMARK  218  A    between atoms: _530  and  _532
REMARK  219  A    between atoms: _532  and  _533
REMARK  220  A    between atoms: _536  and  _538
REMARK  221  A    between atoms: _538  and  _539
REMARK  222  A    between atoms: _538  and  _541
REMARK  223  A    between atoms: _541  and  _542
REMARK  224  A    between atoms: _542  and  _543
REMARK  225  A    between atoms: _543  and  _544
REMARK  226  A    between atoms: _553  and  _555
REMARK  227  A    between atoms: _555  and  _556
REMARK  228  A    between atoms: _555  and  _558
REMARK  229  A    between atoms: _558  and  _559
REMARK  230  A    between atoms: _565  and  _567
REMARK  231  A    between atoms: _567  and  _568
REMARK  232  A    between atoms: _567  and  _570
REMARK  233  A    between atoms: _570  and  _571
REMARK  234  A    between atoms: _571  and  _572
REMARK  235  A    between atoms: _574  and  _576
REMARK  236  A    between atoms: _576  and  _577
REMARK  237  A    between atoms: _576  and  _579
REMARK  238  A    between atoms: _579  and  _580
REMARK  239  A    between atoms: _583  and  _585
REMARK  240  A    between atoms: _585  and  _586
REMARK  241  A    between atoms: _585  and  _588
REMARK  242  A    between atoms: _588  and  _589
REMARK  243  A    between atoms: _596  and  _597
REMARK  244  A    between atoms: _602  and  _604
REMARK  245  A    between atoms: _604  and  _605
REMARK  246  A    between atoms: _604  and  _607
REMARK  247  A    between atoms: _607  and  _608
REMARK  248  A    between atoms: _614  and  _616
REMARK  249  A    between atoms: _616  and  _617
REMARK  250  A    between atoms: _616  and  _619
REMARK  251  A    between atoms: _619  and  _620
REMARK                            x       y       z     vdW  Elec       q    Type
REMARK                         _______ _______ _______ _____ _____    ______ ____
ROOT
ATOM      1  CA  HIS A   1      22.007   5.674  -7.602  0.00  0.00    +0.151 C 
ENDROOT
BRANCH   1   2
ATOM      2  C   HIS A   1      23.458   5.397  -8.026  0.00  0.00    +0.239 C 
ATOM      3  O   HIS A   1      24.316   6.195  -7.701  0.00  0.00    -0.274 OA
ATOM      4  N   ALA A   2      23.745   4.266  -8.674  0.00  0.00    -0.298 N 
ATOM      5  H   ALA A   2      22.978   3.598  -8.892  0.00  0.00    +0.150 HD
BRANCH   4   6
ATOM      6  CA  ALA A   2      25.117   3.941  -9.087  0.00  0.00    +0.137 C 
ATOM      7  CB  ALA A   2      25.272   2.466  -9.666  0.00  0.00    +0.030 C 
BRANCH   6   8
ATOM      8  C   ALA A   2      25.593   5.034 -10.046  0.00  0.00    +0.227 C 
ATOM      9  O   ALA A   2      26.737   5.511  -9.962  0.00  0.00    -0.286 OA
ENDBRANCH   6   8
ENDBRANCH   4   6
ENDBRANCH   1   2
BRANCH   1  10
ATOM     10  N   HIS A   1      21.069   5.113  -8.580  0.00  0.00    -0.238 NA
ATOM     11  H   HIS A   1      20.421   4.355  -8.285  0.00  0.00    +0.142 HD
ENDBRANCH   1  10
BRANCH   1  12
ATOM     12  CB  HIS A   1      21.729   5.055  -6.233  0.00  0.00    +0.074 C 
BRANCH  12  13
ATOM     13  CG  HIS A   1      22.741   5.375  -5.188  0.00  0.00    +0.082 A 
ATOM     14  CD2 HIS A   1      22.936   6.491  -4.427  0.00  0.00    +0.115 A 
ATOM     15  NE2 HIS A   1      24.030   6.255  -3.645  0.00  0.00    -0.221 NA
ATOM     16  CE1 HIS A   1      24.503   5.052  -3.926  0.00  0.00    +0.199 A 
ATOM     17  ND1 HIS A   1      23.734   4.499  -4.849  0.00  0.00    -0.227 NA
ENDBRANCH  12  13
ENDBRANCH   1  12
TORSDOF 6
REMARK  Name = ../refined-set-2016/1n46/1n46_pocket.pdb
REMARK  251 active torsions:
REMARK  status: ('A' for Active; 'I' for Inactive)
REMARK    1  A    between atoms: _1  and  _3
REMARK    2  A    between atoms: _3  and  _4
REMARK    3  A    between atoms: _3  and  _6
REMARK    4  A    between atoms: _6  and  _7
REMARK    5  A    between atoms: _12  and  _14
REMARK    6  A    between atoms: _14  and  _15
REMARK    7  A    between atoms: _14  and  _17
REMARK    8  A    between atoms: _17  and  _18
REMARK    9  A    between atoms: _21  and  _23
REMARK   10  A    between atoms: _23  and  _24
REMARK   11  A    between atoms: _23  and  _26
REMARK   12  A    between atoms: _26  and  _27
REMARK   13  A    between atoms: _32  and  _34
REMARK   14  A    between atoms: _34  and  _35
REMARK   15  A    between atoms: _38  and  _40
REMARK   16  A    between atoms: _40  and  _41
REMARK   17  A    between atoms: _40  and  _43
REMARK   18  A    between atoms: _46  and  _48
REMARK   19  A    between atoms: _48  and  _49
REMARK   20  A    between atoms: _48  and  _51
REMARK   21  A    between atoms: _51  and  _52
REMARK   22  A    between atoms: _55  and  _57
REMARK   23  A    between atoms: _57  and  _58
REMARK   24  A    between atoms: _61  and  _63
REMARK   25  A    between atoms: _63  and  _64
REMARK   26  A    between atoms: _63  and  _66
REMARK   27  A    between atoms: _66  and  _67
REMARK   28  A    between atoms: _73  and  _75
REMARK   29  A    between atoms: _75  and  _76
REMARK   30  A    between atoms: _75  and  _78
REMARK   31  A    between atoms: _78  and  _79
REMARK   32  A    between atoms: _81  and  _83
REMARK   33  A    between atoms: _83  and  _84
REMARK   34  A    between atoms: _83  and  _86
REMARK   35  A    between atoms: _86  and  _87
REMARK   36  A    between atoms: _92  and  _94
REMARK   37  A    between atoms: _94  and  _95
REMARK   38  A    between atoms: _94  and  _97
REMARK   39  A    between atoms: _97  and  _98
REMARK   40  A    between atoms: _104  and  _106
REMARK   41  A    between atoms: _106  and  _107
REMARK   42  A    between atoms: _106  and  _109
REMARK   43  A    between atoms: _109  and  _110
REMARK   44  A    between atoms: _113  and  _115
REMARK   45  A    between atoms: _115  and  _116
REMARK   46  A    between atoms: _115  and  _118
REMARK   47  A    between atoms: _118  and  _119
REMARK   48  A    between atoms: _119  and  _120
REMARK   49  A    between atoms: _120  and  _121
REMARK   50  A    between atoms: _121  and  _122
REMARK   51  A    between atoms: _126  and  _128
REMARK   52  A    between atoms: _128  and  _129
REMARK   53  A    between atoms: _128  and  _131
REMARK   54  A    between atoms: _131  and  _132
REMARK   55  A    between atoms: _135  and  _137
REMARK   56  A    between atoms: _137  and  _138
REMARK   57  A    between atoms: _137  and  _140
REMARK   58  A    between atoms: _140  and  _141
REMARK   59  A    between atoms: _144  and  _146
REMARK   60  A    between atoms: _146  and  _147
REMARK   61  A    between atoms: _146  and  _149
REMARK   62  A    between atoms: _149  and  _150
REMARK   63  A    between atoms: _154  and  _155
REMARK   64  A    between atoms: _160  and  _162
REMARK   65  A    between atoms: _162  and  _163
REMARK   66  A    between atoms: _166  and  _168
REMARK   67  A    between atoms: _168  and  _169
REMARK   68  A    between atoms: _168  and  _171
REMARK   69  A    between atoms: _171  and  _172
REMARK   70  A    between atoms: _177  and  _178
REMARK   71  A    between atoms: _177  and  _180
REMARK   72  A    between atoms: _180  and  _181
REMARK   73  A    between atoms: _184  and  _186
REMARK   74  A    between atoms: _186  and  _187
REMARK   75  A    between atoms: _186  and  _189
REMARK   76  A    between atoms: _189  and  _190
REMARK   77  A    between atoms: _190  and  _191
REMARK   78  A    between atoms: _191  and  _192
REMARK   79  A    between atoms: _201  and  _203
REMARK   80  A    between atoms: _203  and  _204
REMARK   81  A    between atoms: _203  and  _206
REMARK   82  A    between atoms: _209  and  _211
REMARK   83  A    between atoms: _211  and  _212
REMARK   84  A    between atoms: _211  and  _214
REMARK   85  A    between atoms: _217  and  _219
REMARK   86  A    between atoms: _219  and  _220
REMARK   87  A    between atoms: _219  and  _222
REMARK   88  A    between atoms: _224  and  _226
REMARK   89  A    between atoms: _226  and  _227
REMARK   90  A    between atoms: _226  and  _229
REMARK   91  A    between atoms: _229  and  _230
REMARK   92  A    between atoms: _230  and  _231
REMARK   93  A    between atoms: _233  and  _235
REMARK   94  A    between atoms: _235  and  _236
REMARK   95  A    between atoms: _235  and  _238
REMARK   96  A    between atoms: _238  and  _239
REMARK   97  A    between atoms: _242  and  _244
REMARK   98  A    between atoms: _244  and  _245
REMARK   99  A    between atoms: _244  and  _247
REMARK  100  A    between atoms: _247  and  _248
REMARK  101  A    between atoms: _248  and  _249
REMARK  102  A    between atoms: _251  and  _253
REMARK  103  A    between atoms: _253  and  _254
REMARK  104  A    between atoms: _253  and  _256
REMARK  105  A    between atoms: _256  and  _257
REMARK  106  A    between atoms: _259  and  _261
REMARK  107  A    between atoms: _261  and  _262
REMARK  108  A    between atoms: _261  and  _264
REMARK  109  A    between atoms: _264  and  _265
REMARK  110  A    between atoms: _268  and  _270
REMARK  111  A    between atoms: _270  and  _271
REMARK  112  A    between atoms: _270  and  _273
REMARK  113  A    between atoms: _273  and  _274
REMARK  114  A    between atoms: _274  and  _275
REMARK  115  A    between atoms: _275  and  _276
REMARK  116  A    between atoms: _285  and  _287
REMARK  117  A    between atoms: _287  and  _288
REMARK  118  A    between atoms: _291  and  _293
REMARK  119  A    between atoms: _293  and  _294
REMARK  120  A    between atoms: _297  and  _299
REMARK  121  A    between atoms: _299  and  _300
REMARK  122  A    between atoms: _299  and  _302
REMARK  123  A    between atoms: _305  and  _307
REMARK  124  A    between atoms: _307  and  _308
REMARK  125  A    between atoms: _307  and  _310
REMARK  126  A    between atoms: _310  and  _311
REMARK  127  A    between atoms: _311  and  _312
REMARK  128  A    between atoms: _312  and  _313
REMARK  129  A    between atoms: _322  and  _324
REMARK  130  A    between atoms: _324  and  _325
REMARK  131  A    between atoms: _324  and  _327
REMARK  132  A    between atoms: _327  and  _328
REMARK  133  A    between atoms: _331  and  _333
REMARK  134  A    between atoms: _333  and  _334
REMARK  135  A    between atoms: _333  and  _336
REMARK  136  A    between atoms: _336  and  _337
REMARK  137  A    between atoms: _340  and  _342
REMARK  138  A    between atoms: _342  and  _343
REMARK  139  A    between atoms: _342  and  _345
REMARK  140  A    between atoms: _345  and  _346
REMARK  141  A    between atoms: _349  and  _351
REMARK  142  A    between atoms: _351  and  _352
REMARK  143  A    between atoms: _351  and  _354
REMARK  144  A    between atoms: _354  and  _355
REMARK  145  A    between atoms: _360  and  _362
REMARK  146  A    between atoms: _362  and  _363
REMARK  147  A    between atoms: _365  and  _367
REMARK  148  A    between atoms: _367  and  _368
REMARK  149  A    between atoms: _367  and  _370
REMARK  150  A    between atoms: _370  and  _371
REMARK  151  A    between atoms: _371  and  _372
REMARK  152  A    between atoms: _375  and  _377
REMARK  153  A    between atoms: _377  and  _378
REMARK  154  A    between atoms: _377  and  _380
REMARK  155  A    between atoms: _380  and  _381
REMARK  156  A    between atoms: _381  and  _382
REMARK  157  A    between atoms: _384  and  _386
REMARK  158  A    between atoms: _386  and  _387
REMARK  159  A    between atoms: _386  and  _389
REMARK  160  A    between atoms: _392  and  _394
REMARK  161  A    between atoms: _394  and  _395
REMARK  162  A    between atoms: _394  and  _397
REMARK  163  A    between atoms: _397  and  _398
REMARK  164  A    between atoms: _398  and  _399
REMARK  165  A    between atoms: _404  and  _406
REMARK  166  A    between atoms: _406  and  _407
REMARK  167  A    between atoms: _406  and  _409
REMARK  168  A    between atoms: _409  and  _410
REMARK  169  A    between atoms: _413  and  _415
REMARK  170  A    between atoms: _415  and  _416
REMARK  171  A    between atoms: _415  and  _418
REMARK  172  A    between atoms: _418  and  _419
REMARK  173  A    between atoms: _419  and  _420
REMARK  174  A    between atoms: _420  and  _421
REMARK  175  A    between atoms: _421  and  _422
REMARK  176  A    between atoms: _426  and  _428
REMARK  177  A    between atoms: _428  and  _429
REMARK  178  A    between atoms: _428  and  _431
REMARK  179  A    between atoms: _431  and  _432
REMARK  180  A    between atoms: _437  and  _439
REMARK  181  A    between atoms: _439  and  _440
REMARK  182  A    between atoms: _442  and  _444
REMARK  183  A    between atoms: _444  and  _445
REMARK  184  A    between atoms: _447  and  _449
REMARK  185  A    between atoms: _449  and  _450
REMARK  186  A    between atoms: _449  and  _452
REMARK  187  A    between atoms: _452  and  _453
REMARK  188  A    between atoms: _456  and  _458
REMARK  189  A    between atoms: _458  and  _459
REMARK  190  A    between atoms: _461  and  _463
REMARK  191  A    between atoms: _463  and  _464
REMARK  192  A    between atoms: _463  and  _466
REMARK  193  A    between atoms: _469  and  _471
REMARK  194  A    between atoms: _471  and  _472
REMARK  195  A    between atoms: _471  and  _474
REMARK  196  A    between atoms: _474  and  _475
REMARK  197  A    between atoms: _477  and  _479
REMARK  198  A    between atoms: _479  and  _480
REMARK  199  A    between atoms: _479  and  _482
REMARK  200  A    between atoms: _482  and  _483
REMARK  201  A    between atoms: _486  and  _488
REMARK  202  A    between atoms: _488  and  _489
REMARK  203  A    between atoms: _488  and  _491
REMARK  204  A    between atoms: _491  and  _492
REMARK  205  A    between atoms: _498  and  _500
REMARK  206  A    between atoms: _500  and  _501
REMARK  207  A    between atoms: _500  and  _503
REMARK  208  A    between atoms: _503  and  _504
REMARK  209  A    between atoms: _504  and  _505
REMARK  210  A    between atoms: _510  and  _512
REMARK  211  A    between atoms: _512  and  _513
REMARK  212  A    between atoms: _512  and  _515
REMARK  213  A    between atoms: _515  and  _516
REMARK  214  A    between atoms: _519  and  _521
REMARK  215  A    between atoms: _521  and  _522
REMARK  216  A    between atoms: _521  and  _524
REMARK  217  A    between atoms: _524  and  _525
REMARK  218  A    between atoms: _530  and  _532
REMARK  219  A    between atoms: _532  and  _533
REMARK  220  A    between atoms: _536  and  _538
REMARK  221  A    between atoms: _538  and  _539
REMARK  222  A    between atoms: _538  and  _541
REMARK  223  A    between atoms: _541  and  _542
REMARK  224  A    between atoms: _542  and  _543
REMARK  225  A    between atoms: _543  and  _544
REMARK  226  A    between atoms: _553  and  _555
REMARK  227  A    between atoms: _555  and  _556
REMARK  228  A    between atoms: _555  and  _558
REMARK  229  A    between atoms: _558  and  _559
REMARK  230  A    between atoms: _565  and  _567
REMARK  231  A    between atoms: _567  and  _568
REMARK  232  A    between atoms: _567  and  _570
REMARK  233  A    between atoms: _570  and  _571
REMARK  234  A    between atoms: _571  and  _572
REMARK  235  A    between atoms: _574  and  _576
REMARK  236  A    between atoms: _576  and  _577
REMARK  237  A    between atoms: _576  and  _579
REMARK  238  A    between atoms: _579  and  _580
REMARK  239  A    between atoms: _583  and  _585
REMARK  240  A    between atoms: _585  and  _586
REMARK  241  A    between atoms: _585  and  _588
REMARK  242  A    between atoms: _588  and  _589
REMARK  243  A    between atoms: _596  and  _597
REMARK  244  A    between atoms: _602  and  _604
REMARK  245  A    between atoms: _604  and  _605
REMARK  246  A    between atoms: _604  and  _607
REMARK  247  A    between atoms: _607  and  _608
REMARK  248  A    between atoms: _614  and  _616
REMARK  249  A    between atoms: _616  and  _617
REMARK  250  A    between atoms: _616  and  _619
REMARK  251  A    between atoms: _619  and  _620
REMARK                            x       y       z     vdW  Elec       q    Type
REMARK                         _______ _______ _______ _____ _____    ______ ____
ROOT
ATOM      1  CA  ARG A   1      24.555   9.358  -8.891  0.00  0.00    +0.145 C 
ENDROOT
BRANCH   1   2
ATOM      2  C   ARG A   1      25.903   9.319  -8.136  0.00  0.00    +0.238 C 
ATOM      3  N   PHE A   2      26.374   8.148  -7.740  0.00  0.00    -0.298 N 
ATOM      4  H   PHE A   2      25.792   7.298  -7.884  0.00  0.00    +0.150 HD
ATOM      5  O   ARG A   1      26.455  10.373  -7.906  0.00  0.00    -0.274 OA
BRANCH   3   6
ATOM      6  CA  PHE A   2      27.658   8.011  -7.120  0.00  0.00    +0.141 C 
BRANCH   6   7
ATOM      7  C   PHE A   2      28.773   8.555  -8.030  0.00  0.00    +0.227 C 
ATOM      8  O   PHE A   2      29.691   9.189  -7.575  0.00  0.00    -0.286 OA
ENDBRANCH   6   7
BRANCH   6   9
ATOM      9  CB  PHE A   2      27.962   6.537  -6.764  0.00  0.00    +0.054 C 
BRANCH   9  10
ATOM     10  CG  PHE A   2      29.132   6.422  -5.916  0.00  0.00    -0.020 A 
ATOM     11  CD2 PHE A   2      29.057   6.813  -4.567  0.00  0.00    -0.004 A 
ATOM     12  CE2 PHE A   2      30.181   6.762  -3.764  0.00  0.00    -0.000 A 
ATOM     13  CZ  PHE A   2      31.401   6.342  -4.281  0.00  0.00    -0.000 A 
ATOM     14  CE1 PHE A   2      31.498   5.906  -5.617  0.00  0.00    -0.000 A 
ATOM     15  CD1 PHE A   2      30.349   5.976  -6.446  0.00  0.00    -0.004 A 
ENDBRANCH   9  10
ENDBRANCH   6   9
ENDBRANCH   3   6
ENDBRANCH   1   2
BRANCH   1  16
ATOM     16  N   ARG A   1      24.335   8.248  -9.829  0.00  0.00    -0.238 NA
ATOM     17  H   ARG A   1      23.485   7.657  -9.734  0.00  0.00    +0.142 HD
ENDBRANCH   1  16
BRANCH   1  18
ATOM     18  CB  ARG A   1      23.443   9.547  -7.899  0.00  0.00    +0.030 C 
BRANCH  18  19
ATOM     19  CG  ARG A   1      22.036   9.644  -8.560  0.00  0.00    +0.045 C 
BRANCH  19  20
ATOM     20  CD  ARG A   1      21.903  10.827  -9.441  0.00  0.00    +0.174 C 
BRANCH  20  21
ATOM     21  NE  ARG A   1      22.339  12.020  -8.683  0.00  0.00    -0.265 N 
ATOM     22  HE  ARG A   1      22.138  12.038  -7.663  0.00  0.00    +0.259 HD
ATOM     23  CZ  ARG A   1      22.975  13.084  -9.208  0.00  0.00    +0.342 C 
ATOM     24  NH2 ARG A   1      23.340  14.099  -8.461  0.00  0.00    -0.292 N 
ATOM     25 HH21 ARG A   1      23.139  14.092  -7.441  0.00  0.00    +0.255 HD
ATOM     26 HH22 ARG A   1      23.830  14.910  -8.889  0.00  0.00    +0.255 HD
ATOM     27  NH1 ARG A   1      23.266  13.141 -10.485  0.00  0.00    -0.292 N 
ATOM     28 HH11 ARG A   1      23.758  13.973 -10.870  0.00  0.00    +0.255 HD
ATOM     29 HH12 ARG A   1      23.005  12.355 -11.113  0.00  0.00    +0.255 HD
ENDBRANCH  20  21
ENDBRANCH  19  20
ENDBRANCH  18  19
ENDBRANCH   1  18
TORSDOF 10
REMARK  Name = ../refined-set-2016/1n46/1n46_pocket.pdb
REMARK  251 active torsions:
REMARK  status: ('A' for Active; 'I' for Inactive)
REMARK    1  A    between atoms: _1  and  _3
REMARK    2  A    between atoms: _3  and  _4
REMARK    3  A    between atoms: _3  and  _6
REMARK    4  A    between atoms: _6  and  _7
REMARK    5  A    between atoms: _12  and  _14
REMARK    6  A    between atoms: _14  and  _15
REMARK    7  A    between atoms: _14  and  _17
REMARK    8  A    between atoms: _17  and  _18
REMARK    9  A    between atoms: _21  and  _23
REMARK   10  A    between atoms: _23  and  _24
REMARK   11  A    between atoms: _23  and  _26
REMARK   12  A    between atoms: _26  and  _27
REMARK   13  A    between atoms: _32  and  _34
REMARK   14  A    between atoms: _34  and  _35
REMARK   15  A    between atoms: _38  and  _40
REMARK   16  A    between atoms: _40  and  _41
REMARK   17  A    between atoms: _40  and  _43
REMARK   18  A    between atoms: _46  and  _48
REMARK   19  A    between atoms: _48  and  _49
REMARK   20  A    between atoms: _48  and  _51
REMARK   21  A    between atoms: _51  and  _52
REMARK   22  A    between atoms: _55  and  _57
REMARK   23  A    between atoms: _57  and  _58
REMARK   24  A    between atoms: _61  and  _63
REMARK   25  A    between atoms: _63  and  _64
REMARK   26  A    between atoms: _63  and  _66
REMARK   27  A    between atoms: _66  and  _67
REMARK   28  A    between atoms: _73  and  _75
REMARK   29  A    between atoms: _75  and  _76
REMARK   30  A    between atoms: _75  and  _78
REMARK   31  A    between atoms: _78  and  _79
REMARK   32  A    between atoms: _81  and  _83
REMARK   33  A    between atoms: _83  and  _84
REMARK   34  A    between atoms: _83  and  _86
REMARK   35  A    between atoms: _86  and  _87
REMARK   36  A    between atoms: _92  and  _94
REMARK   37  A    between atoms: _94  and  _95
REMARK   38  A    between atoms: _94  and  _97
REMARK   39  A    between atoms: _97  and  _98
REMARK   40  A    between atoms: _104  and  _106
REMARK   41  A    between atoms: _106  and  _107
REMARK   42  A    between atoms: _106  and  _109
REMARK   43  A    between atoms: _109  and  _110
REMARK   44  A    between atoms: _113  and  _115
REMARK   45  A    between atoms: _115  and  _116
REMARK   46  A    between atoms: _115  and  _118
REMARK   47  A    between atoms: _118  and  _119
REMARK   48  A    between atoms: _119  and  _120
REMARK   49  A    between atoms: _120  and  _121
REMARK   50  A    between atoms: _121  and  _122
REMARK   51  A    between atoms: _126  and  _128
REMARK   52  A    between atoms: _128  and  _129
REMARK   53  A    between atoms: _128  and  _131
REMARK   54  A    between atoms: _131  and  _132
REMARK   55  A    between atoms: _135  and  _137
REMARK   56  A    between atoms: _137  and  _138
REMARK   57  A    between atoms: _137  and  _140
REMARK   58  A    between atoms: _140  and  _141
REMARK   59  A    between atoms: _144  and  _146
REMARK   60  A    between atoms: _146  and  _147
REMARK   61  A    between atoms: _146  and  _149
REMARK   62  A    between atoms: _149  and  _150
REMARK   63  A    between atoms: _154  and  _155
REMARK   64  A    between atoms: _160  and  _162
REMARK   65  A    between atoms: _162  and  _163
REMARK   66  A    between atoms: _166  and  _168
REMARK   67  A    between atoms: _168  and  _169
REMARK   68  A    between atoms: _168  and  _171
REMARK   69  A    between atoms: _171  and  _172
REMARK   70  A    between atoms: _177  and  _178
REMARK   71  A    between atoms: _177  and  _180
REMARK   72  A    between atoms: _180  and  _181
REMARK   73  A    between atoms: _184  and  _186
REMARK   74  A    between atoms: _186  and  _187
REMARK   75  A    between atoms: _186  and  _189
REMARK   76  A    between atoms: _189  and  _190
REMARK   77  A    between atoms: _190  and  _191
REMARK   78  A    between atoms: _191  and  _192
REMARK   79  A    between atoms: _201  and  _203
REMARK   80  A    between atoms: _203  and  _204
REMARK   81  A    between atoms: _203  and  _206
REMARK   82  A    between atoms: _209  and  _211
REMARK   83  A    between atoms: _211  and  _212
REMARK   84  A    between atoms: _211  and  _214
REMARK   85  A    between atoms: _217  and  _219
REMARK   86  A    between atoms: _219  and  _220
REMARK   87  A    between atoms: _219  and  _222
REMARK   88  A    between atoms: _224  and  _226
REMARK   89  A    between atoms: _226  and  _227
REMARK   90  A    between atoms: _226  and  _229
REMARK   91  A    between atoms: _229  and  _230
REMARK   92  A    between atoms: _230  and  _231
REMARK   93  A    between atoms: _233  and  _235
REMARK   94  A    between atoms: _235  and  _236
REMARK   95  A    between atoms: _235  and  _238
REMARK   96  A    between atoms: _238  and  _239
REMARK   97  A    between atoms: _242  and  _244
REMARK   98  A    between atoms: _244  and  _245
REMARK   99  A    between atoms: _244  and  _247
REMARK  100  A    between atoms: _247  and  _248
REMARK  101  A    between atoms: _248  and  _249
REMARK  102  A    between atoms: _251  and  _253
REMARK  103  A    between atoms: _253  and  _254
REMARK  104  A    between atoms: _253  and  _256
REMARK  105  A    between atoms: _256  and  _257
REMARK  106  A    between atoms: _259  and  _261
REMARK  107  A    between atoms: _261  and  _262
REMARK  108  A    between atoms: _261  and  _264
REMARK  109  A    between atoms: _264  and  _265
REMARK  110  A    between atoms: _268  and  _270
REMARK  111  A    between atoms: _270  and  _271
REMARK  112  A    between atoms: _270  and  _273
REMARK  113  A    between atoms: _273  and  _274
REMARK  114  A    between atoms: _274  and  _275
REMARK  115  A    between atoms: _275  and  _276
REMARK  116  A    between atoms: _285  and  _287
REMARK  117  A    between atoms: _287  and  _288
REMARK  118  A    between atoms: _291  and  _293
REMARK  119  A    between atoms: _293  and  _294
REMARK  120  A    between atoms: _297  and  _299
REMARK  121  A    between atoms: _299  and  _300
REMARK  122  A    between atoms: _299  and  _302
REMARK  123  A    between atoms: _305  and  _307
REMARK  124  A    between atoms: _307  and  _308
REMARK  125  A    between atoms: _307  and  _310
REMARK  126  A    between atoms: _310  and  _311
REMARK  127  A    between atoms: _311  and  _312
REMARK  128  A    between atoms: _312  and  _313
REMARK  129  A    between atoms: _322  and  _324
REMARK  130  A    between atoms: _324  and  _325
REMARK  131  A    between atoms: _324  and  _327
REMARK  132  A    between atoms: _327  and  _328
REMARK  133  A    between atoms: _331  and  _333
REMARK  134  A    between atoms: _333  and  _334
REMARK  135  A    between atoms: _333  and  _336
REMARK  136  A    between atoms: _336  and  _337
REMARK  137  A    between atoms: _340  and  _342
REMARK  138  A    between atoms: _342  and  _343
REMARK  139  A    between atoms: _342  and  _345
REMARK  140  A    between atoms: _345  and  _346
REMARK  141  A    between atoms: _349  and  _351
REMARK  142  A    between atoms: _351  and  _352
REMARK  143  A    between atoms: _351  and  _354
REMARK  144  A    between atoms: _354  and  _355
REMARK  145  A    between atoms: _360  and  _362
REMARK  146  A    between atoms: _362  and  _363
REMARK  147  A    between atoms: _365  and  _367
REMARK  148  A    between atoms: _367  and  _368
REMARK  149  A    between atoms: _367  and  _370
REMARK  150  A    between atoms: _370  and  _371
REMARK  151  A    between atoms: _371  and  _372
REMARK  152  A    between atoms: _375  and  _377
REMARK  153  A    between atoms: _377  and  _378
REMARK  154  A    between atoms: _377  and  _380
REMARK  155  A    between atoms: _380  and  _381
REMARK  156  A    between atoms: _381  and  _382
REMARK  157  A    between atoms: _384  and  _386
REMARK  158  A    between atoms: _386  and  _387
REMARK  159  A    between atoms: _386  and  _389
REMARK  160  A    between atoms: _392  and  _394
REMARK  161  A    between atoms: _394  and  _395
REMARK  162  A    between atoms: _394  and  _397
REMARK  163  A    between atoms: _397  and  _398
REMARK  164  A    between atoms: _398  and  _399
REMARK  165  A    between atoms: _404  and  _406
REMARK  166  A    between atoms: _406  and  _407
REMARK  167  A    between atoms: _406  and  _409
REMARK  168  A    between atoms: _409  and  _410
REMARK  169  A    between atoms: _413  and  _415
REMARK  170  A    between atoms: _415  and  _416
REMARK  171  A    between atoms: _415  and  _418
REMARK  172  A    between atoms: _418  and  _419
REMARK  173  A    between atoms: _419  and  _420
REMARK  174  A    between atoms: _420  and  _421
REMARK  175  A    between atoms: _421  and  _422
REMARK  176  A    between atoms: _426  and  _428
REMARK  177  A    between atoms: _428  and  _429
REMARK  178  A    between atoms: _428  and  _431
REMARK  179  A    between atoms: _431  and  _432
REMARK  180  A    between atoms: _437  and  _439
REMARK  181  A    between atoms: _439  and  _440
REMARK  182  A    between atoms: _442  and  _444
REMARK  183  A    between atoms: _444  and  _445
REMARK  184  A    between atoms: _447  and  _449
REMARK  185  A    between atoms: _449  and  _450
REMARK  186  A    between atoms: _449  and  _452
REMARK  187  A    between atoms: _452  and  _453
REMARK  188  A    between atoms: _456  and  _458
REMARK  189  A    between atoms: _458  and  _459
REMARK  190  A    between atoms: _461  and  _463
REMARK  191  A    between atoms: _463  and  _464
REMARK  192  A    between atoms: _463  and  _466
REMARK  193  A    between atoms: _469  and  _471
REMARK  194  A    between atoms: _471  and  _472
REMARK  195  A    between atoms: _471  and  _474
REMARK  196  A    between atoms: _474  and  _475
REMARK  197  A    between atoms: _477  and  _479
REMARK  198  A    between atoms: _479  and  _480
REMARK  199  A    between atoms: _479  and  _482
REMARK  200  A    between atoms: _482  and  _483
REMARK  201  A    between atoms: _486  and  _488
REMARK  202  A    between atoms: _488  and  _489
REMARK  203  A    between atoms: _488  and  _491
REMARK  204  A    between atoms: _491  and  _492
REMARK  205  A    between atoms: _498  and  _500
REMARK  206  A    between atoms: _500  and  _501
REMARK  207  A    between atoms: _500  and  _503
REMARK  208  A    between atoms: _503  and  _504
REMARK  209  A    between atoms: _504  and  _505
REMARK  210  A    between atoms: _510  and  _512
REMARK  211  A    between atoms: _512  and  _513
REMARK  212  A    between atoms: _512  and  _515
REMARK  213  A    between atoms: _515  and  _516
REMARK  214  A    between atoms: _519  and  _521
REMARK  215  A    between atoms: _521  and  _522
REMARK  216  A    between atoms: _521  and  _524
REMARK  217  A    between atoms: _524  and  _525
REMARK  218  A    between atoms: _530  and  _532
REMARK  219  A    between atoms: _532  and  _533
REMARK  220  A    between atoms: _536  and  _538
REMARK  221  A    between atoms: _538  and  _539
REMARK  222  A    between atoms: _538  and  _541
REMARK  223  A    between atoms: _541  and  _542
REMARK  224  A    between atoms: _542  and  _543
REMARK  225  A    between atoms: _543  and  _544
REMARK  226  A    between atoms: _553  and  _555
REMARK  227  A    between atoms: _555  and  _556
REMARK  228  A    between atoms: _555  and  _558
REMARK  229  A    between atoms: _558  and  _559
REMARK  230  A    between atoms: _565  and  _567
REMARK  231  A    between atoms: _567  and  _568
REMARK  232  A    between atoms: _567  and  _570
REMARK  233  A    between atoms: _570  and  _571
REMARK  234  A    between atoms: _571  and  _572
REMARK  235  A    between atoms: _574  and  _576
REMARK  236  A    between atoms: _576  and  _577
REMARK  237  A    between atoms: _576  and  _579
REMARK  238  A    between atoms: _579  and  _580
REMARK  239  A    between atoms: _583  and  _585
REMARK  240  A    between atoms: _585  and  _586
REMARK  241  A    between atoms: _585  and  _588
REMARK  242  A    between atoms: _588  and  _589
REMARK  243  A    between atoms: _596  and  _597
REMARK  244  A    between atoms: _602  and  _604
REMARK  245  A    between atoms: _604  and  _605
REMARK  246  A    between atoms: _604  and  _607
REMARK  247  A    between atoms: _607  and  _608
REMARK  248  A    between atoms: _614  and  _616
REMARK  249  A    between atoms: _616  and  _617
REMARK  250  A    between atoms: _616  and  _619
REMARK  251  A    between atoms: _619  and  _620
REMARK                            x       y       z     vdW  Elec       q    Type
REMARK                         _______ _______ _______ _____ _____    ______ ____
ROOT
ATOM      1  CA  MET A   1      29.065  12.666  -6.730  0.00  0.00    +0.134 C 
ENDROOT
BRANCH   1   2
ATOM      2  N   MET A   1      28.600  12.269  -8.028  0.00  0.00    -0.239 NA
ATOM      3  H   MET A   1      27.998  11.425  -8.115  0.00  0.00    +0.142 HD
ENDBRANCH   1   2
BRANCH   1   4
ATOM      4  C   MET A   1      30.597  12.606  -6.702  0.00  0.00    +0.224 C 
ATOM      5  O   MET A   1      31.205  13.486  -6.120  0.00  0.00    -0.287 OA
ENDBRANCH   1   4
BRANCH   1   6
ATOM      6  CB  MET A   1      28.524  11.738  -5.616  0.00  0.00    +0.037 C 
BRANCH   6   7
ATOM      7  CG  MET A   1      27.068  11.806  -5.266  0.00  0.00    +0.059 C 
BRANCH   7   8
ATOM      8  SD  MET A   1      26.635  10.392  -4.202  0.00  0.00    -0.139 S 
ATOM      9  CE  MET A   1      24.867  10.530  -4.250  0.00  0.00    +0.069 C 
ENDBRANCH   7   8
ENDBRANCH   6   7
ENDBRANCH   1   6
TORSDOF 5
REMARK  Name = ../refined-set-2016/1n46/1n46_pocket.pdb
REMARK  251 active torsions:
REMARK  status: ('A' for Active; 'I' for Inactive)
REMARK    1  A    between atoms: _1  and  _3
REMARK    2  A    between atoms: _3  and  _4
REMARK    3  A    between atoms: _3  and  _6
REMARK    4  A    between atoms: _6  and  _7
REMARK    5  A    between atoms: _12  and  _14
REMARK    6  A    between atoms: _14  and  _15
REMARK    7  A    between atoms: _14  and  _17
REMARK    8  A    between atoms: _17  and  _18
REMARK    9  A    between atoms: _21  and  _23
REMARK   10  A    between atoms: _23  and  _24
REMARK   11  A    between atoms: _23  and  _26
REMARK   12  A    between atoms: _26  and  _27
REMARK   13  A    between atoms: _32  and  _34
REMARK   14  A    between atoms: _34  and  _35
REMARK   15  A    between atoms: _38  and  _40
REMARK   16  A    between atoms: _40  and  _41
REMARK   17  A    between atoms: _40  and  _43
REMARK   18  A    between atoms: _46  and  _48
REMARK   19  A    between atoms: _48  and  _49
REMARK   20  A    between atoms: _48  and  _51
REMARK   21  A    between atoms: _51  and  _52
REMARK   22  A    between atoms: _55  and  _57
REMARK   23  A    between atoms: _57  and  _58
REMARK   24  A    between atoms: _61  and  _63
REMARK   25  A    between atoms: _63  and  _64
REMARK   26  A    between atoms: _63  and  _66
REMARK   27  A    between atoms: _66  and  _67
REMARK   28  A    between atoms: _73  and  _75
REMARK   29  A    between atoms: _75  and  _76
REMARK   30  A    between atoms: _75  and  _78
REMARK   31  A    between atoms: _78  and  _79
REMARK   32  A    between atoms: _81  and  _83
REMARK   33  A    between atoms: _83  and  _84
REMARK   34  A    between atoms: _83  and  _86
REMARK   35  A    between atoms: _86  and  _87
REMARK   36  A    between atoms: _92  and  _94
REMARK   37  A    between atoms: _94  and  _95
REMARK   38  A    between atoms: _94  and  _97
REMARK   39  A    between atoms: _97  and  _98
REMARK   40  A    between atoms: _104  and  _106
REMARK   41  A    between atoms: _106  and  _107
REMARK   42  A    between atoms: _106  and  _109
REMARK   43  A    between atoms: _109  and  _110
REMARK   44  A    between atoms: _113  and  _115
REMARK   45  A    between atoms: _115  and  _116
REMARK   46  A    between atoms: _115  and  _118
REMARK   47  A    between atoms: _118  and  _119
REMARK   48  A    between atoms: _119  and  _120
REMARK   49  A    between atoms: _120  and  _121
REMARK   50  A    between atoms: _121  and  _122
REMARK   51  A    between atoms: _126  and  _128
REMARK   52  A    between atoms: _128  and  _129
REMARK   53  A    between atoms: _128  and  _131
REMARK   54  A    between atoms: _131  and  _132
REMARK   55  A    between atoms: _135  and  _137
REMARK   56  A    between atoms: _137  and  _138
REMARK   57  A    between atoms: _137  and  _140
REMARK   58  A    between atoms: _140  and  _141
REMARK   59  A    between atoms: _144  and  _146
REMARK   60  A    between atoms: _146  and  _147
REMARK   61  A    between atoms: _146  and  _149
REMARK   62  A    between atoms: _149  and  _150
REMARK   63  A    between atoms: _154  and  _155
REMARK   64  A    between atoms: _160  and  _162
REMARK   65  A    between atoms: _162  and  _163
REMARK   66  A    between atoms: _166  and  _168
REMARK   67  A    between atoms: _168  and  _169
REMARK   68  A    between atoms: _168  and  _171
REMARK   69  A    between atoms: _171  and  _172
REMARK   70  A    between atoms: _177  and  _178
REMARK   71  A    between atoms: _177  and  _180
REMARK   72  A    between atoms: _180  and  _181
REMARK   73  A    between atoms: _184  and  _186
REMARK   74  A    between atoms: _186  and  _187
REMARK   75  A    between atoms: _186  and  _189
REMARK   76  A    between atoms: _189  and  _190
REMARK   77  A    between atoms: _190  and  _191
REMARK   78  A    between atoms: _191  and  _192
REMARK   79  A    between atoms: _201  and  _203
REMARK   80  A    between atoms: _203  and  _204
REMARK   81  A    between atoms: _203  and  _206
REMARK   82  A    between atoms: _209  and  _211
REMARK   83  A    between atoms: _211  and  _212
REMARK   84  A    between atoms: _211  and  _214
REMARK   85  A    between atoms: _217  and  _219
REMARK   86  A    between atoms: _219  and  _220
REMARK   87  A    between atoms: _219  and  _222
REMARK   88  A    between atoms: _224  and  _226
REMARK   89  A    between atoms: _226  and  _227
REMARK   90  A    between atoms: _226  and  _229
REMARK   91  A    between atoms: _229  and  _230
REMARK   92  A    between atoms: _230  and  _231
REMARK   93  A    between atoms: _233  and  _235
REMARK   94  A    between atoms: _235  and  _236
REMARK   95  A    between atoms: _235  and  _238
REMARK   96  A    between atoms: _238  and  _239
REMARK   97  A    between atoms: _242  and  _244
REMARK   98  A    between atoms: _244  and  _245
REMARK   99  A    between atoms: _244  and  _247
REMARK  100  A    between atoms: _247  and  _248
REMARK  101  A    between atoms: _248  and  _249
REMARK  102  A    between atoms: _251  and  _253
REMARK  103  A    between atoms: _253  and  _254
REMARK  104  A    between atoms: _253  and  _256
REMARK  105  A    between atoms: _256  and  _257
REMARK  106  A    between atoms: _259  and  _261
REMARK  107  A    between atoms: _261  and  _262
REMARK  108  A    between atoms: _261  and  _264
REMARK  109  A    between atoms: _264  and  _265
REMARK  110  A    between atoms: _268  and  _270
REMARK  111  A    between atoms: _270  and  _271
REMARK  112  A    between atoms: _270  and  _273
REMARK  113  A    between atoms: _273  and  _274
REMARK  114  A    between atoms: _274  and  _275
REMARK  115  A    between atoms: _275  and  _276
REMARK  116  A    between atoms: _285  and  _287
REMARK  117  A    between atoms: _287  and  _288
REMARK  118  A    between atoms: _291  and  _293
REMARK  119  A    between atoms: _293  and  _294
REMARK  120  A    between atoms: _297  and  _299
REMARK  121  A    between atoms: _299  and  _300
REMARK  122  A    between atoms: _299  and  _302
REMARK  123  A    between atoms: _305  and  _307
REMARK  124  A    between atoms: _307  and  _308
REMARK  125  A    between atoms: _307  and  _310
REMARK  126  A    between atoms: _310  and  _311
REMARK  127  A    between atoms: _311  and  _312
REMARK  128  A    between atoms: _312  and  _313
REMARK  129  A    between atoms: _322  and  _324
REMARK  130  A    between atoms: _324  and  _325
REMARK  131  A    between atoms: _324  and  _327
REMARK  132  A    between atoms: _327  and  _328
REMARK  133  A    between atoms: _331  and  _333
REMARK  134  A    between atoms: _333  and  _334
REMARK  135  A    between atoms: _333  and  _336
REMARK  136  A    between atoms: _336  and  _337
REMARK  137  A    between atoms: _340  and  _342
REMARK  138  A    between atoms: _342  and  _343
REMARK  139  A    between atoms: _342  and  _345
REMARK  140  A    between atoms: _345  and  _346
REMARK  141  A    between atoms: _349  and  _351
REMARK  142  A    between atoms: _351  and  _352
REMARK  143  A    between atoms: _351  and  _354
REMARK  144  A    between atoms: _354  and  _355
REMARK  145  A    between atoms: _360  and  _362
REMARK  146  A    between atoms: _362  and  _363
REMARK  147  A    between atoms: _365  and  _367
REMARK  148  A    between atoms: _367  and  _368
REMARK  149  A    between atoms: _367  and  _370
REMARK  150  A    between atoms: _370  and  _371
REMARK  151  A    between atoms: _371  and  _372
REMARK  152  A    between atoms: _375  and  _377
REMARK  153  A    between atoms: _377  and  _378
REMARK  154  A    between atoms: _377  and  _380
REMARK  155  A    between atoms: _380  and  _381
REMARK  156  A    between atoms: _381  and  _382
REMARK  157  A    between atoms: _384  and  _386
REMARK  158  A    between atoms: _386  and  _387
REMARK  159  A    between atoms: _386  and  _389
REMARK  160  A    between atoms: _392  and  _394
REMARK  161  A    between atoms: _394  and  _395
REMARK  162  A    between atoms: _394  and  _397
REMARK  163  A    between atoms: _397  and  _398
REMARK  164  A    between atoms: _398  and  _399
REMARK  165  A    between atoms: _404  and  _406
REMARK  166  A    between atoms: _406  and  _407
REMARK  167  A    between atoms: _406  and  _409
REMARK  168  A    between atoms: _409  and  _410
REMARK  169  A    between atoms: _413  and  _415
REMARK  170  A    between atoms: _415  and  _416
REMARK  171  A    between atoms: _415  and  _418
REMARK  172  A    between atoms: _418  and  _419
REMARK  173  A    between atoms: _419  and  _420
REMARK  174  A    between atoms: _420  and  _421
REMARK  175  A    between atoms: _421  and  _422
REMARK  176  A    between atoms: _426  and  _428
REMARK  177  A    between atoms: _428  and  _429
REMARK  178  A    between atoms: _428  and  _431
REMARK  179  A    between atoms: _431  and  _432
REMARK  180  A    between atoms: _437  and  _439
REMARK  181  A    between atoms: _439  and  _440
REMARK  182  A    between atoms: _442  and  _444
REMARK  183  A    between atoms: _444  and  _445
REMARK  184  A    between atoms: _447  and  _449
REMARK  185  A    between atoms: _449  and  _450
REMARK  186  A    between atoms: _449  and  _452
REMARK  187  A    between atoms: _452  and  _453
REMARK  188  A    between atoms: _456  and  _458
REMARK  189  A    between atoms: _458  and  _459
REMARK  190  A    between atoms: _461  and  _463
REMARK  191  A    between atoms: _463  and  _464
REMARK  192  A    between atoms: _463  and  _466
REMARK  193  A    between atoms: _469  and  _471
REMARK  194  A    between atoms: _471  and  _472
REMARK  195  A    between atoms: _471  and  _474
REMARK  196  A    between atoms: _474  and  _475
REMARK  197  A    between atoms: _477  and  _479
REMARK  198  A    between atoms: _479  and  _480
REMARK  199  A    between atoms: _479  and  _482
REMARK  200  A    between atoms: _482  and  _483
REMARK  201  A    between atoms: _486  and  _488
REMARK  202  A    between atoms: _488  and  _489
REMARK  203  A    between atoms: _488  and  _491
REMARK  204  A    between atoms: _491  and  _492
REMARK  205  A    between atoms: _498  and  _500
REMARK  206  A    between atoms: _500  and  _501
REMARK  207  A    between atoms: _500  and  _503
REMARK  208  A    between atoms: _503  and  _504
REMARK  209  A    between atoms: _504  and  _505
REMARK  210  A    between atoms: _510  and  _512
REMARK  211  A    between atoms: _512  and  _513
REMARK  212  A    between atoms: _512  and  _515
REMARK  213  A    between atoms: _515  and  _516
REMARK  214  A    between atoms: _519  and  _521
REMARK  215  A    between atoms: _521  and  _522
REMARK  216  A    between atoms: _521  and  _524
REMARK  217  A    between atoms: _524  and  _525
REMARK  218  A    between atoms: _530  and  _532
REMARK  219  A    between atoms: _532  and  _533
REMARK  220  A    between atoms: _536  and  _538
REMARK  221  A    between atoms: _538  and  _539
REMARK  222  A    between atoms: _538  and  _541
REMARK  223  A    between atoms: _541  and  _542
REMARK  224  A    between atoms: _542  and  _543
REMARK  225  A    between atoms: _543  and  _544
REMARK  226  A    between atoms: _553  and  _555
REMARK  227  A    between atoms: _555  and  _556
REMARK  228  A    between atoms: _555  and  _558
REMARK  229  A    between atoms: _558  and  _559
REMARK  230  A    between atoms: _565  and  _567
REMARK  231  A    between atoms: _567  and  _568
REMARK  232  A    between atoms: _567  and  _570
REMARK  233  A    between atoms: _570  and  _571
REMARK  234  A    between atoms: _571  and  _572
REMARK  235  A    between atoms: _574  and  _576
REMARK  236  A    between atoms: _576  and  _577
REMARK  237  A    between atoms: _576  and  _579
REMARK  238  A    between atoms: _579  and  _580
REMARK  239  A    between atoms: _583  and  _585
REMARK  240  A    between atoms: _585  and  _586
REMARK  241  A    between atoms: _585  and  _588
REMARK  242  A    between atoms: _588  and  _589
REMARK  243  A    between atoms: _596  and  _597
REMARK  244  A    between atoms: _602  and  _604
REMARK  245  A    between atoms: _604  and  _605
REMARK  246  A    between atoms: _604  and  _607
REMARK  247  A    between atoms: _607  and  _608
REMARK  248  A    between atoms: _614  and  _616
REMARK  249  A    between atoms: _616  and  _617
REMARK  250  A    between atoms: _616  and  _619
REMARK  251  A    between atoms: _619  and  _620
REMARK                            x       y       z     vdW  Elec       q    Type
REMARK                         _______ _______ _______ _____ _____    ______ ____
ROOT
ATOM      1  CA  PHE A   2      33.485  10.449   1.237  0.00  0.00    +0.153 C 
ENDROOT
BRANCH   1   2
ATOM      2  C   PHE A   2      34.043   9.513   2.261  0.00  0.00    +0.244 C 
ATOM      3  N   PRO A   3      33.276   9.100   3.276  0.00  0.00    -0.273 N 
ATOM      4  CA  PRO A   3      33.788   8.135   4.253  0.00  0.00    +0.140 C 
ATOM      5  CB  PRO A   3      32.634   8.000   5.228  0.00  0.00    +0.030 C 
ATOM      6  CG  PRO A   3      31.792   9.336   4.997  0.00  0.00    +0.024 C 
ATOM      7  CD  PRO A   3      31.895   9.501   3.574  0.00  0.00    +0.094 C 
ATOM      8  O   PHE A   2      35.191   9.148   2.121  0.00  0.00    -0.273 OA
BRANCH   4   9
ATOM      9  C   PRO A   3      34.254   6.811   3.564  0.00  0.00    +0.227 C 
ATOM     10  O   PRO A   3      33.777   6.431   2.505  0.00  0.00    -0.286 OA
ENDBRANCH   4   9
ENDBRANCH   1   2
BRANCH   1  13
ATOM     11  C   LEU A   1      33.182  12.737   2.112  0.00  0.00    +0.238 C 
ATOM     12  O   LEU A   1      32.016  12.513   2.438  0.00  0.00    -0.274 OA
ATOM     13  N   PHE A   2      33.963  11.819   1.515  0.00  0.00    -0.297 N 
ATOM     14  H   PHE A   2      34.931  12.081   1.241  0.00  0.00    +0.150 HD
BRANCH  11  15
ATOM     15  CA  LEU A   1      33.735  14.151   2.384  0.00  0.00    +0.145 C 
BRANCH  15  16
ATOM     16  N   LEU A   1      35.051  14.358   1.853  0.00  0.00    -0.238 NA
ATOM     17  H   LEU A   1      35.193  14.699   0.881  0.00  0.00    +0.142 HD
ENDBRANCH  15  16
BRANCH  15  18
ATOM     18  CB  LEU A   1      32.758  15.185   1.860  0.00  0.00    +0.026 C 
BRANCH  18  19
ATOM     19  CG  LEU A   1      33.173  16.626   1.639  0.00  0.00    +0.002 C 
ATOM     20  CD2 LEU A   1      32.691  17.533   2.785  0.00  0.00    +0.000 C 
ATOM     21  CD1 LEU A   1      32.538  17.069   0.320  0.00  0.00    +0.000 C 
ENDBRANCH  18  19
ENDBRANCH  15  18
ENDBRANCH  11  15
ENDBRANCH   1  13
BRANCH   1  22
ATOM     22  CB  PHE A   2      33.974   9.932  -0.131  0.00  0.00    +0.055 C 
BRANCH  22  23
ATOM     23  CG  PHE A   2      33.274  10.520  -1.330  0.00  0.00    -0.020 A 
ATOM     24  CD2 PHE A   2      33.706  11.723  -1.873  0.00  0.00    -0.004 A 
ATOM     25  CE2 PHE A   2      33.114  12.268  -2.984  0.00  0.00    -0.000 A 
ATOM     26  CZ  PHE A   2      32.060  11.585  -3.616  0.00  0.00    -0.000 A 
ATOM     27  CE1 PHE A   2      31.632  10.360  -3.141  0.00  0.00    -0.000 A 
ATOM     28  CD1 PHE A   2      32.272   9.808  -1.997  0.00  0.00    -0.004 A 
ENDBRANCH  22  23
ENDBRANCH   1  22
TORSDOF 9
REMARK  Name = ../refined-set-2016/1n46/1n46_pocket.pdb
REMARK  251 active torsions:
REMARK  status: ('A' for Active; 'I' for Inactive)
REMARK    1  A    between atoms: _1  and  _3
REMARK    2  A    between atoms: _3  and  _4
REMARK    3  A    between atoms: _3  and  _6
REMARK    4  A    between atoms: _6  and  _7
REMARK    5  A    between atoms: _12  and  _14
REMARK    6  A    between atoms: _14  and  _15
REMARK    7  A    between atoms: _14  and  _17
REMARK    8  A    between atoms: _17  and  _18
REMARK    9  A    between atoms: _21  and  _23
REMARK   10  A    between atoms: _23  and  _24
REMARK   11  A    between atoms: _23  and  _26
REMARK   12  A    between atoms: _26  and  _27
REMARK   13  A    between atoms: _32  and  _34
REMARK   14  A    between atoms: _34  and  _35
REMARK   15  A    between atoms: _38  and  _40
REMARK   16  A    between atoms: _40  and  _41
REMARK   17  A    between atoms: _40  and  _43
REMARK   18  A    between atoms: _46  and  _48
REMARK   19  A    between atoms: _48  and  _49
REMARK   20  A    between atoms: _48  and  _51
REMARK   21  A    between atoms: _51  and  _52
REMARK   22  A    between atoms: _55  and  _57
REMARK   23  A    between atoms: _57  and  _58
REMARK   24  A    between atoms: _61  and  _63
REMARK   25  A    between atoms: _63  and  _64
REMARK   26  A    between atoms: _63  and  _66
REMARK   27  A    between atoms: _66  and  _67
REMARK   28  A    between atoms: _73  and  _75
REMARK   29  A    between atoms: _75  and  _76
REMARK   30  A    between atoms: _75  and  _78
REMARK   31  A    between atoms: _78  and  _79
REMARK   32  A    between atoms: _81  and  _83
REMARK   33  A    between atoms: _83  and  _84
REMARK   34  A    between atoms: _83  and  _86
REMARK   35  A    between atoms: _86  and  _87
REMARK   36  A    between atoms: _92  and  _94
REMARK   37  A    between atoms: _94  and  _95
REMARK   38  A    between atoms: _94  and  _97
REMARK   39  A    between atoms: _97  and  _98
REMARK   40  A    between atoms: _104  and  _106
REMARK   41  A    between atoms: _106  and  _107
REMARK   42  A    between atoms: _106  and  _109
REMARK   43  A    between atoms: _109  and  _110
REMARK   44  A    between atoms: _113  and  _115
REMARK   45  A    between atoms: _115  and  _116
REMARK   46  A    between atoms: _115  and  _118
REMARK   47  A    between atoms: _118  and  _119
REMARK   48  A    between atoms: _119  and  _120
REMARK   49  A    between atoms: _120  and  _121
REMARK   50  A    between atoms: _121  and  _122
REMARK   51  A    between atoms: _126  and  _128
REMARK   52  A    between atoms: _128  and  _129
REMARK   53  A    between atoms: _128  and  _131
REMARK   54  A    between atoms: _131  and  _132
REMARK   55  A    between atoms: _135  and  _137
REMARK   56  A    between atoms: _137  and  _138
REMARK   57  A    between atoms: _137  and  _140
REMARK   58  A    between atoms: _140  and  _141
REMARK   59  A    between atoms: _144  and  _146
REMARK   60  A    between atoms: _146  and  _147
REMARK   61  A    between atoms: _146  and  _149
REMARK   62  A    between atoms: _149  and  _150
REMARK   63  A    between atoms: _154  and  _155
REMARK   64  A    between atoms: _160  and  _162
REMARK   65  A    between atoms: _162  and  _163
REMARK   66  A    between atoms: _166  and  _168
REMARK   67  A    between atoms: _168  and  _169
REMARK   68  A    between atoms: _168  and  _171
REMARK   69  A    between atoms: _171  and  _172
REMARK   70  A    between atoms: _177  and  _178
REMARK   71  A    between atoms: _177  and  _180
REMARK   72  A    between atoms: _180  and  _181
REMARK   73  A    between atoms: _184  and  _186
REMARK   74  A    between atoms: _186  and  _187
REMARK   75  A    between atoms: _186  and  _189
REMARK   76  A    between atoms: _189  and  _190
REMARK   77  A    between atoms: _190  and  _191
REMARK   78  A    between atoms: _191  and  _192
REMARK   79  A    between atoms: _201  and  _203
REMARK   80  A    between atoms: _203  and  _204
REMARK   81  A    between atoms: _203  and  _206
REMARK   82  A    between atoms: _209  and  _211
REMARK   83  A    between atoms: _211  and  _212
REMARK   84  A    between atoms: _211  and  _214
REMARK   85  A    between atoms: _217  and  _219
REMARK   86  A    between atoms: _219  and  _220
REMARK   87  A    between atoms: _219  and  _222
REMARK   88  A    between atoms: _224  and  _226
REMARK   89  A    between atoms: _226  and  _227
REMARK   90  A    between atoms: _226  and  _229
REMARK   91  A    between atoms: _229  and  _230
REMARK   92  A    between atoms: _230  and  _231
REMARK   93  A    between atoms: _233  and  _235
REMARK   94  A    between atoms: _235  and  _236
REMARK   95  A    between atoms: _235  and  _238
REMARK   96  A    between atoms: _238  and  _239
REMARK   97  A    between atoms: _242  and  _244
REMARK   98  A    between atoms: _244  and  _245
REMARK   99  A    between atoms: _244  and  _247
REMARK  100  A    between atoms: _247  and  _248
REMARK  101  A    between atoms: _248  and  _249
REMARK  102  A    between atoms: _251  and  _253
REMARK  103  A    between atoms: _253  and  _254
REMARK  104  A    between atoms: _253  and  _256
REMARK  105  A    between atoms: _256  and  _257
REMARK  106  A    between atoms: _259  and  _261
REMARK  107  A    between atoms: _261  and  _262
REMARK  108  A    between atoms: _261  and  _264
REMARK  109  A    between atoms: _264  and  _265
REMARK  110  A    between atoms: _268  and  _270
REMARK  111  A    between atoms: _270  and  _271
REMARK  112  A    between atoms: _270  and  _273
REMARK  113  A    between atoms: _273  and  _274
REMARK  114  A    between atoms: _274  and  _275
REMARK  115  A    between atoms: _275  and  _276
REMARK  116  A    between atoms: _285  and  _287
REMARK  117  A    between atoms: _287  and  _288
REMARK  118  A    between atoms: _291  and  _293
REMARK  119  A    between atoms: _293  and  _294
REMARK  120  A    between atoms: _297  and  _299
REMARK  121  A    between atoms: _299  and  _300
REMARK  122  A    between atoms: _299  and  _302
REMARK  123  A    between atoms: _305  and  _307
REMARK  124  A    between atoms: _307  and  _308
REMARK  125  A    between atoms: _307  and  _310
REMARK  126  A    between atoms: _310  and  _311
REMARK  127  A    between atoms: _311  and  _312
REMARK  128  A    between atoms: _312  and  _313
REMARK  129  A    between atoms: _322  and  _324
REMARK  130  A    between atoms: _324  and  _325
REMARK  131  A    between atoms: _324  and  _327
REMARK  132  A    between atoms: _327  and  _328
REMARK  133  A    between atoms: _331  and  _333
REMARK  134  A    between atoms: _333  and  _334
REMARK  135  A    between atoms: _333  and  _336
REMARK  136  A    between atoms: _336  and  _337
REMARK  137  A    between atoms: _340  and  _342
REMARK  138  A    between atoms: _342  and  _343
REMARK  139  A    between atoms: _342  and  _345
REMARK  140  A    between atoms: _345  and  _346
REMARK  141  A    between atoms: _349  and  _351
REMARK  142  A    between atoms: _351  and  _352
REMARK  143  A    between atoms: _351  and  _354
REMARK  144  A    between atoms: _354  and  _355
REMARK  145  A    between atoms: _360  and  _362
REMARK  146  A    between atoms: _362  and  _363
REMARK  147  A    between atoms: _365  and  _367
REMARK  148  A    between atoms: _367  and  _368
REMARK  149  A    between atoms: _367  and  _370
REMARK  150  A    between atoms: _370  and  _371
REMARK  151  A    between atoms: _371  and  _372
REMARK  152  A    between atoms: _375  and  _377
REMARK  153  A    between atoms: _377  and  _378
REMARK  154  A    between atoms: _377  and  _380
REMARK  155  A    between atoms: _380  and  _381
REMARK  156  A    between atoms: _381  and  _382
REMARK  157  A    between atoms: _384  and  _386
REMARK  158  A    between atoms: _386  and  _387
REMARK  159  A    between atoms: _386  and  _389
REMARK  160  A    between atoms: _392  and  _394
REMARK  161  A    between atoms: _394  and  _395
REMARK  162  A    between atoms: _394  and  _397
REMARK  163  A    between atoms: _397  and  _398
REMARK  164  A    between atoms: _398  and  _399
REMARK  165  A    between atoms: _404  and  _406
REMARK  166  A    between atoms: _406  and  _407
REMARK  167  A    between atoms: _406  and  _409
REMARK  168  A    between atoms: _409  and  _410
REMARK  169  A    between atoms: _413  and  _415
REMARK  170  A    between atoms: _415  and  _416
REMARK  171  A    between atoms: _415  and  _418
REMARK  172  A    between atoms: _418  and  _419
REMARK  173  A    between atoms: _419  and  _420
REMARK  174  A    between atoms: _420  and  _421
REMARK  175  A    between atoms: _421  and  _422
REMARK  176  A    between atoms: _426  and  _428
REMARK  177  A    between atoms: _428  and  _429
REMARK  178  A    between atoms: _428  and  _431
REMARK  179  A    between atoms: _431  and  _432
REMARK  180  A    between atoms: _437  and  _439
REMARK  181  A    between atoms: _439  and  _440
REMARK  182  A    between atoms: _442  and  _444
REMARK  183  A    between atoms: _444  and  _445
REMARK  184  A    between atoms: _447  and  _449
REMARK  185  A    between atoms: _449  and  _450
REMARK  186  A    between atoms: _449  and  _452
REMARK  187  A    between atoms: _452  and  _453
REMARK  188  A    between atoms: _456  and  _458
REMARK  189  A    between atoms: _458  and  _459
REMARK  190  A    between atoms: _461  and  _463
REMARK  191  A    between atoms: _463  and  _464
REMARK  192  A    between atoms: _463  and  _466
REMARK  193  A    between atoms: _469  and  _471
REMARK  194  A    between atoms: _471  and  _472
REMARK  195  A    between atoms: _471  and  _474
REMARK  196  A    between atoms: _474  and  _475
REMARK  197  A    between atoms: _477  and  _479
REMARK  198  A    between atoms: _479  and  _480
REMARK  199  A    between atoms: _479  and  _482
REMARK  200  A    between atoms: _482  and  _483
REMARK  201  A    between atoms: _486  and  _488
REMARK  202  A    between atoms: _488  and  _489
REMARK  203  A    between atoms: _488  and  _491
REMARK  204  A    between atoms: _491  and  _492
REMARK  205  A    between atoms: _498  and  _500
REMARK  206  A    between atoms: _500  and  _501
REMARK  207  A    between atoms: _500  and  _503
REMARK  208  A    between atoms: _503  and  _504
REMARK  209  A    between atoms: _504  and  _505
REMARK  210  A    between atoms: _510  and  _512
REMARK  211  A    between atoms: _512  and  _513
REMARK  212  A    between atoms: _512  and  _515
REMARK  213  A    between atoms: _515  and  _516
REMARK  214  A    between atoms: _519  and  _521
REMARK  215  A    between atoms: _521  and  _522
REMARK  216  A    between atoms: _521  and  _524
REMARK  217  A    between atoms: _524  and  _525
REMARK  218  A    between atoms: _530  and  _532
REMARK  219  A    between atoms: _532  and  _533
REMARK  220  A    between atoms: _536  and  _538
REMARK  221  A    between atoms: _538  and  _539
REMARK  222  A    between atoms: _538  and  _541
REMARK  223  A    between atoms: _541  and  _542
REMARK  224  A    between atoms: _542  and  _543
REMARK  225  A    between atoms: _543  and  _544
REMARK  226  A    between atoms: _553  and  _555
REMARK  227  A    between atoms: _555  and  _556
REMARK  228  A    between atoms: _555  and  _558
REMARK  229  A    between atoms: _558  and  _559
REMARK  230  A    between atoms: _565  and  _567
REMARK  231  A    between atoms: _567  and  _568
REMARK  232  A    between atoms: _567  and  _570
REMARK  233  A    between atoms: _570  and  _571
REMARK  234  A    between atoms: _571  and  _572
REMARK  235  A    between atoms: _574  and  _576
REMARK  236  A    between atoms: _576  and  _577
REMARK  237  A    between atoms: _576  and  _579
REMARK  238  A    between atoms: _579  and  _580
REMARK  239  A    between atoms: _583  and  _585
REMARK  240  A    between atoms: _585  and  _586
REMARK  241  A    between atoms: _585  and  _588
REMARK  242  A    between atoms: _588  and  _589
REMARK  243  A    between atoms: _596  and  _597
REMARK  244  A    between atoms: _602  and  _604
REMARK  245  A    between atoms: _604  and  _605
REMARK  246  A    between atoms: _604  and  _607
REMARK  247  A    between atoms: _607  and  _608
REMARK  248  A    between atoms: _614  and  _616
REMARK  249  A    between atoms: _616  and  _617
REMARK  250  A    between atoms: _616  and  _619
REMARK  251  A    between atoms: _619  and  _620
REMARK                            x       y       z     vdW  Elec       q    Type
REMARK                         _______ _______ _______ _____ _____    ______ ____
ROOT
ATOM      1  CB  PHE A   1      30.729   6.231   1.545  0.00  0.00    +0.046 C 
ENDROOT
BRANCH   1   2
ATOM      2  CG  PHE A   1      29.693   6.855   0.583  0.00  0.00    -0.021 A 
ATOM      3  CD2 PHE A   1      28.500   6.207   0.190  0.00  0.00    -0.004 A 
ATOM      4  CE2 PHE A   1      27.595   6.850  -0.658  0.00  0.00    -0.000 A 
ATOM      5  CZ  PHE A   1      27.846   8.163  -1.118  0.00  0.00    -0.000 A 
ATOM      6  CE1 PHE A   1      29.011   8.805  -0.728  0.00  0.00    -0.000 A 
ATOM      7  CD1 PHE A   1      29.906   8.172   0.126  0.00  0.00    -0.004 A 
ENDBRANCH   1   2
BRANCH   1   8
ATOM      8  CA  PHE A   1      30.908   4.703   1.464  0.00  0.00    +0.106 C 
BRANCH   8   9
ATOM      9  N   PHE A   1      31.660   4.236   2.630  0.00  0.00    -0.244 NA
ATOM     10  H   PHE A   1      31.988   4.929   3.333  0.00  0.00    +0.141 HD
ENDBRANCH   8   9
BRANCH   8  11
ATOM     11  C   PHE A   1      31.622   4.292   0.189  0.00  0.00    +0.199 C 
ATOM     12  O   PHE A   1      30.983   3.753  -0.794  0.00  0.00    -0.219 OA
ENDBRANCH   8  11
ENDBRANCH   1   8
TORSDOF 4
REMARK  Name = ../refined-set-2016/1n46/1n46_pocket.pdb
REMARK  251 active torsions:
REMARK  status: ('A' for Active; 'I' for Inactive)
REMARK    1  A    between atoms: _1  and  _3
REMARK    2  A    between atoms: _3  and  _4
REMARK    3  A    between atoms: _3  and  _6
REMARK    4  A    between atoms: _6  and  _7
REMARK    5  A    between atoms: _12  and  _14
REMARK    6  A    between atoms: _14  and  _15
REMARK    7  A    between atoms: _14  and  _17
REMARK    8  A    between atoms: _17  and  _18
REMARK    9  A    between atoms: _21  and  _23
REMARK   10  A    between atoms: _23  and  _24
REMARK   11  A    between atoms: _23  and  _26
REMARK   12  A    between atoms: _26  and  _27
REMARK   13  A    between atoms: _32  and  _34
REMARK   14  A    between atoms: _34  and  _35
REMARK   15  A    between atoms: _38  and  _40
REMARK   16  A    between atoms: _40  and  _41
REMARK   17  A    between atoms: _40  and  _43
REMARK   18  A    between atoms: _46  and  _48
REMARK   19  A    between atoms: _48  and  _49
REMARK   20  A    between atoms: _48  and  _51
REMARK   21  A    between atoms: _51  and  _52
REMARK   22  A    between atoms: _55  and  _57
REMARK   23  A    between atoms: _57  and  _58
REMARK   24  A    between atoms: _61  and  _63
REMARK   25  A    between atoms: _63  and  _64
REMARK   26  A    between atoms: _63  and  _66
REMARK   27  A    between atoms: _66  and  _67
REMARK   28  A    between atoms: _73  and  _75
REMARK   29  A    between atoms: _75  and  _76
REMARK   30  A    between atoms: _75  and  _78
REMARK   31  A    between atoms: _78  and  _79
REMARK   32  A    between atoms: _81  and  _83
REMARK   33  A    between atoms: _83  and  _84
REMARK   34  A    between atoms: _83  and  _86
REMARK   35  A    between atoms: _86  and  _87
REMARK   36  A    between atoms: _92  and  _94
REMARK   37  A    between atoms: _94  and  _95
REMARK   38  A    between atoms: _94  and  _97
REMARK   39  A    between atoms: _97  and  _98
REMARK   40  A    between atoms: _104  and  _106
REMARK   41  A    between atoms: _106  and  _107
REMARK   42  A    between atoms: _106  and  _109
REMARK   43  A    between atoms: _109  and  _110
REMARK   44  A    between atoms: _113  and  _115
REMARK   45  A    between atoms: _115  and  _116
REMARK   46  A    between atoms: _115  and  _118
REMARK   47  A    between atoms: _118  and  _119
REMARK   48  A    between atoms: _119  and  _120
REMARK   49  A    between atoms: _120  and  _121
REMARK   50  A    between atoms: _121  and  _122
REMARK   51  A    between atoms: _126  and  _128
REMARK   52  A    between atoms: _128  and  _129
REMARK   53  A    between atoms: _128  and  _131
REMARK   54  A    between atoms: _131  and  _132
REMARK   55  A    between atoms: _135  and  _137
REMARK   56  A    between atoms: _137  and  _138
REMARK   57  A    between atoms: _137  and  _140
REMARK   58  A    between atoms: _140  and  _141
REMARK   59  A    between atoms: _144  and  _146
REMARK   60  A    between atoms: _146  and  _147
REMARK   61  A    between atoms: _146  and  _149
REMARK   62  A    between atoms: _149  and  _150
REMARK   63  A    between atoms: _154  and  _155
REMARK   64  A    between atoms: _160  and  _162
REMARK   65  A    between atoms: _162  and  _163
REMARK   66  A    between atoms: _166  and  _168
REMARK   67  A    between atoms: _168  and  _169
REMARK   68  A    between atoms: _168  and  _171
REMARK   69  A    between atoms: _171  and  _172
REMARK   70  A    between atoms: _177  and  _178
REMARK   71  A    between atoms: _177  and  _180
REMARK   72  A    between atoms: _180  and  _181
REMARK   73  A    between atoms: _184  and  _186
REMARK   74  A    between atoms: _186  and  _187
REMARK   75  A    between atoms: _186  and  _189
REMARK   76  A    between atoms: _189  and  _190
REMARK   77  A    between atoms: _190  and  _191
REMARK   78  A    between atoms: _191  and  _192
REMARK   79  A    between atoms: _201  and  _203
REMARK   80  A    between atoms: _203  and  _204
REMARK   81  A    between atoms: _203  and  _206
REMARK   82  A    between atoms: _209  and  _211
REMARK   83  A    between atoms: _211  and  _212
REMARK   84  A    between atoms: _211  and  _214
REMARK   85  A    between atoms: _217  and  _219
REMARK   86  A    between atoms: _219  and  _220
REMARK   87  A    between atoms: _219  and  _222
REMARK   88  A    between atoms: _224  and  _226
REMARK   89  A    between atoms: _226  and  _227
REMARK   90  A    between atoms: _226  and  _229
REMARK   91  A    between atoms: _229  and  _230
REMARK   92  A    between atoms: _230  and  _231
REMARK   93  A    between atoms: _233  and  _235
REMARK   94  A    between atoms: _235  and  _236
REMARK   95  A    between atoms: _235  and  _238
REMARK   96  A    between atoms: _238  and  _239
REMARK   97  A    between atoms: _242  and  _244
REMARK   98  A    between atoms: _244  and  _245
REMARK   99  A    between atoms: _244  and  _247
REMARK  100  A    between atoms: _247  and  _248
REMARK  101  A    between atoms: _248  and  _249
REMARK  102  A    between atoms: _251  and  _253
REMARK  103  A    between atoms: _253  and  _254
REMARK  104  A    between atoms: _253  and  _256
REMARK  105  A    between atoms: _256  and  _257
REMARK  106  A    between atoms: _259  and  _261
REMARK  107  A    between atoms: _261  and  _262
REMARK  108  A    between atoms: _261  and  _264
REMARK  109  A    between atoms: _264  and  _265
REMARK  110  A    between atoms: _268  and  _270
REMARK  111  A    between atoms: _270  and  _271
REMARK  112  A    between atoms: _270  and  _273
REMARK  113  A    between atoms: _273  and  _274
REMARK  114  A    between atoms: _274  and  _275
REMARK  115  A    between atoms: _275  and  _276
REMARK  116  A    between atoms: _285  and  _287
REMARK  117  A    between atoms: _287  and  _288
REMARK  118  A    between atoms: _291  and  _293
REMARK  119  A    between atoms: _293  and  _294
REMARK  120  A    between atoms: _297  and  _299
REMARK  121  A    between atoms: _299  and  _300
REMARK  122  A    between atoms: _299  and  _302
REMARK  123  A    between atoms: _305  and  _307
REMARK  124  A    between atoms: _307  and  _308
REMARK  125  A    between atoms: _307  and  _310
REMARK  126  A    between atoms: _310  and  _311
REMARK  127  A    between atoms: _311  and  _312
REMARK  128  A    between atoms: _312  and  _313
REMARK  129  A    between atoms: _322  and  _324
REMARK  130  A    between atoms: _324  and  _325
REMARK  131  A    between atoms: _324  and  _327
REMARK  132  A    between atoms: _327  and  _328
REMARK  133  A    between atoms: _331  and  _333
REMARK  134  A    between atoms: _333  and  _334
REMARK  135  A    between atoms: _333  and  _336
REMARK  136  A    between atoms: _336  and  _337
REMARK  137  A    between atoms: _340  and  _342
REMARK  138  A    between atoms: _342  and  _343
REMARK  139  A    between atoms: _342  and  _345
REMARK  140  A    between atoms: _345  and  _346
REMARK  141  A    between atoms: _349  and  _351
REMARK  142  A    between atoms: _351  and  _352
REMARK  143  A    between atoms: _351  and  _354
REMARK  144  A    between atoms: _354  and  _355
REMARK  145  A    between atoms: _360  and  _362
REMARK  146  A    between atoms: _362  and  _363
REMARK  147  A    between atoms: _365  and  _367
REMARK  148  A    between atoms: _367  and  _368
REMARK  149  A    between atoms: _367  and  _370
REMARK  150  A    between atoms: _370  and  _371
REMARK  151  A    between atoms: _371  and  _372
REMARK  152  A    between atoms: _375  and  _377
REMARK  153  A    between atoms: _377  and  _378
REMARK  154  A    between atoms: _377  and  _380
REMARK  155  A    between atoms: _380  and  _381
REMARK  156  A    between atoms: _381  and  _382
REMARK  157  A    between atoms: _384  and  _386
REMARK  158  A    between atoms: _386  and  _387
REMARK  159  A    between atoms: _386  and  _389
REMARK  160  A    between atoms: _392  and  _394
REMARK  161  A    between atoms: _394  and  _395
REMARK  162  A    between atoms: _394  and  _397
REMARK  163  A    between atoms: _397  and  _398
REMARK  164  A    between atoms: _398  and  _399
REMARK  165  A    between atoms: _404  and  _406
REMARK  166  A    between atoms: _406  and  _407
REMARK  167  A    between atoms: _406  and  _409
REMARK  168  A    between atoms: _409  and  _410
REMARK  169  A    between atoms: _413  and  _415
REMARK  170  A    between atoms: _415  and  _416
REMARK  171  A    between atoms: _415  and  _418
REMARK  172  A    between atoms: _418  and  _419
REMARK  173  A    between atoms: _419  and  _420
REMARK  174  A    between atoms: _420  and  _421
REMARK  175  A    between atoms: _421  and  _422
REMARK  176  A    between atoms: _426  and  _428
REMARK  177  A    between atoms: _428  and  _429
REMARK  178  A    between atoms: _428  and  _431
REMARK  179  A    between atoms: _431  and  _432
REMARK  180  A    between atoms: _437  and  _439
REMARK  181  A    between atoms: _439  and  _440
REMARK  182  A    between atoms: _442  and  _444
REMARK  183  A    between atoms: _444  and  _445
REMARK  184  A    between atoms: _447  and  _449
REMARK  185  A    between atoms: _449  and  _450
REMARK  186  A    between atoms: _449  and  _452
REMARK  187  A    between atoms: _452  and  _453
REMARK  188  A    between atoms: _456  and  _458
REMARK  189  A    between atoms: _458  and  _459
REMARK  190  A    between atoms: _461  and  _463
REMARK  191  A    between atoms: _463  and  _464
REMARK  192  A    between atoms: _463  and  _466
REMARK  193  A    between atoms: _469  and  _471
REMARK  194  A    between atoms: _471  and  _472
REMARK  195  A    between atoms: _471  and  _474
REMARK  196  A    between atoms: _474  and  _475
REMARK  197  A    between atoms: _477  and  _479
REMARK  198  A    between atoms: _479  and  _480
REMARK  199  A    between atoms: _479  and  _482
REMARK  200  A    between atoms: _482  and  _483
REMARK  201  A    between atoms: _486  and  _488
REMARK  202  A    between atoms: _488  and  _489
REMARK  203  A    between atoms: _488  and  _491
REMARK  204  A    between atoms: _491  and  _492
REMARK  205  A    between atoms: _498  and  _500
REMARK  206  A    between atoms: _500  and  _501
REMARK  207  A    between atoms: _500  and  _503
REMARK  208  A    between atoms: _503  and  _504
REMARK  209  A    between atoms: _504  and  _505
REMARK  210  A    between atoms: _510  and  _512
REMARK  211  A    between atoms: _512  and  _513
REMARK  212  A    between atoms: _512  and  _515
REMARK  213  A    between atoms: _515  and  _516
REMARK  214  A    between atoms: _519  and  _521
REMARK  215  A    between atoms: _521  and  _522
REMARK  216  A    between atoms: _521  and  _524
REMARK  217  A    between atoms: _524  and  _525
REMARK  218  A    between atoms: _530  and  _532
REMARK  219  A    between atoms: _532  and  _533
REMARK  220  A    between atoms: _536  and  _538
REMARK  221  A    between atoms: _538  and  _539
REMARK  222  A    between atoms: _538  and  _541
REMARK  223  A    between atoms: _541  and  _542
REMARK  224  A    between atoms: _542  and  _543
REMARK  225  A    between atoms: _543  and  _544
REMARK  226  A    between atoms: _553  and  _555
REMARK  227  A    between atoms: _555  and  _556
REMARK  228  A    between atoms: _555  and  _558
REMARK  229  A    between atoms: _558  and  _559
REMARK  230  A    between atoms: _565  and  _567
REMARK  231  A    between atoms: _567  and  _568
REMARK  232  A    between atoms: _567  and  _570
REMARK  233  A    between atoms: _570  and  _571
REMARK  234  A    between atoms: _571  and  _572
REMARK  235  A    between atoms: _574  and  _576
REMARK  236  A    between atoms: _576  and  _577
REMARK  237  A    between atoms: _576  and  _579
REMARK  238  A    between atoms: _579  and  _580
REMARK  239  A    between atoms: _583  and  _585
REMARK  240  A    between atoms: _585  and  _586
REMARK  241  A    between atoms: _585  and  _588
REMARK  242  A    between atoms: _588  and  _589
REMARK  243  A    between atoms: _596  and  _597
REMARK  244  A    between atoms: _602  and  _604
REMARK  245  A    between atoms: _604  and  _605
REMARK  246  A    between atoms: _604  and  _607
REMARK  247  A    between atoms: _607  and  _608
REMARK  248  A    between atoms: _614  and  _616
REMARK  249  A    between atoms: _616  and  _617
REMARK  250  A    between atoms: _616  and  _619
REMARK  251  A    between atoms: _619  and  _620
REMARK                            x       y       z     vdW  Elec       q    Type
REMARK                         _______ _______ _______ _____ _____    ______ ____
ROOT
ATOM      1  CB  PHE A   1      28.966   3.094  -3.774  0.00  0.00    +0.051 C 
ENDROOT
BRANCH   1   2
ATOM      2  CG  PHE A   1      27.714   2.834  -2.996  0.00  0.00    -0.020 A 
ATOM      3  CD2 PHE A   1      27.570   3.247  -1.667  0.00  0.00    -0.004 A 
ATOM      4  CE2 PHE A   1      26.393   3.005  -0.968  0.00  0.00    -0.000 A 
ATOM      5  CZ  PHE A   1      25.369   2.278  -1.567  0.00  0.00    -0.000 A 
ATOM      6  CE1 PHE A   1      25.521   1.812  -2.815  0.00  0.00    -0.000 A 
ATOM      7  CD1 PHE A   1      26.693   2.066  -3.547  0.00  0.00    -0.004 A 
ENDBRANCH   1   2
BRANCH   1   8
ATOM      8  CA  PHE A   1      29.803   1.839  -3.998  0.00  0.00    +0.137 C 
BRANCH   8   9
ATOM      9  N   PHE A   1      30.289   1.334  -2.701  0.00  0.00    -0.239 NA
ATOM     10  H   PHE A   1      30.752   1.977  -2.028  0.00  0.00    +0.142 HD
ENDBRANCH   8   9
BRANCH   8  11
ATOM     11  C   PHE A   1      30.866   2.006  -5.078  0.00  0.00    +0.224 C 
ATOM     12  O   PHE A   1      30.512   2.220  -6.209  0.00  0.00    -0.287 OA
ENDBRANCH   8  11
ENDBRANCH   1   8
TORSDOF 4
REMARK  Name = ../refined-set-2016/1n46/1n46_pocket.pdb
REMARK  251 active torsions:
REMARK  status: ('A' for Active; 'I' for Inactive)
REMARK    1  A    between atoms: _1  and  _3
REMARK    2  A    between atoms: _3  and  _4
REMARK    3  A    between atoms: _3  and  _6
REMARK    4  A    between atoms: _6  and  _7
REMARK    5  A    between atoms: _12  and  _14
REMARK    6  A    between atoms: _14  and  _15
REMARK    7  A    between atoms: _14  and  _17
REMARK    8  A    between atoms: _17  and  _18
REMARK    9  A    between atoms: _21  and  _23
REMARK   10  A    between atoms: _23  and  _24
REMARK   11  A    between atoms: _23  and  _26
REMARK   12  A    between atoms: _26  and  _27
REMARK   13  A    between atoms: _32  and  _34
REMARK   14  A    between atoms: _34  and  _35
REMARK   15  A    between atoms: _38  and  _40
REMARK   16  A    between atoms: _40  and  _41
REMARK   17  A    between atoms: _40  and  _43
REMARK   18  A    between atoms: _46  and  _48
REMARK   19  A    between atoms: _48  and  _49
REMARK   20  A    between atoms: _48  and  _51
REMARK   21  A    between atoms: _51  and  _52
REMARK   22  A    between atoms: _55  and  _57
REMARK   23  A    between atoms: _57  and  _58
REMARK   24  A    between atoms: _61  and  _63
REMARK   25  A    between atoms: _63  and  _64
REMARK   26  A    between atoms: _63  and  _66
REMARK   27  A    between atoms: _66  and  _67
REMARK   28  A    between atoms: _73  and  _75
REMARK   29  A    between atoms: _75  and  _76
REMARK   30  A    between atoms: _75  and  _78
REMARK   31  A    between atoms: _78  and  _79
REMARK   32  A    between atoms: _81  and  _83
REMARK   33  A    between atoms: _83  and  _84
REMARK   34  A    between atoms: _83  and  _86
REMARK   35  A    between atoms: _86  and  _87
REMARK   36  A    between atoms: _92  and  _94
REMARK   37  A    between atoms: _94  and  _95
REMARK   38  A    between atoms: _94  and  _97
REMARK   39  A    between atoms: _97  and  _98
REMARK   40  A    between atoms: _104  and  _106
REMARK   41  A    between atoms: _106  and  _107
REMARK   42  A    between atoms: _106  and  _109
REMARK   43  A    between atoms: _109  and  _110
REMARK   44  A    between atoms: _113  and  _115
REMARK   45  A    between atoms: _115  and  _116
REMARK   46  A    between atoms: _115  and  _118
REMARK   47  A    between atoms: _118  and  _119
REMARK   48  A    between atoms: _119  and  _120
REMARK   49  A    between atoms: _120  and  _121
REMARK   50  A    between atoms: _121  and  _122
REMARK   51  A    between atoms: _126  and  _128
REMARK   52  A    between atoms: _128  and  _129
REMARK   53  A    between atoms: _128  and  _131
REMARK   54  A    between atoms: _131  and  _132
REMARK   55  A    between atoms: _135  and  _137
REMARK   56  A    between atoms: _137  and  _138
REMARK   57  A    between atoms: _137  and  _140
REMARK   58  A    between atoms: _140  and  _141
REMARK   59  A    between atoms: _144  and  _146
REMARK   60  A    between atoms: _146  and  _147
REMARK   61  A    between atoms: _146  and  _149
REMARK   62  A    between atoms: _149  and  _150
REMARK   63  A    between atoms: _154  and  _155
REMARK   64  A    between atoms: _160  and  _162
REMARK   65  A    between atoms: _162  and  _163
REMARK   66  A    between atoms: _166  and  _168
REMARK   67  A    between atoms: _168  and  _169
REMARK   68  A    between atoms: _168  and  _171
REMARK   69  A    between atoms: _171  and  _172
REMARK   70  A    between atoms: _177  and  _178
REMARK   71  A    between atoms: _177  and  _180
REMARK   72  A    between atoms: _180  and  _181
REMARK   73  A    between atoms: _184  and  _186
REMARK   74  A    between atoms: _186  and  _187
REMARK   75  A    between atoms: _186  and  _189
REMARK   76  A    between atoms: _189  and  _190
REMARK   77  A    between atoms: _190  and  _191
REMARK   78  A    between atoms: _191  and  _192
REMARK   79  A    between atoms: _201  and  _203
REMARK   80  A    between atoms: _203  and  _204
REMARK   81  A    between atoms: _203  and  _206
REMARK   82  A    between atoms: _209  and  _211
REMARK   83  A    between atoms: _211  and  _212
REMARK   84  A    between atoms: _211  and  _214
REMARK   85  A    between atoms: _217  and  _219
REMARK   86  A    between atoms: _219  and  _220
REMARK   87  A    between atoms: _219  and  _222
REMARK   88  A    between atoms: _224  and  _226
REMARK   89  A    between atoms: _226  and  _227
REMARK   90  A    between atoms: _226  and  _229
REMARK   91  A    between atoms: _229  and  _230
REMARK   92  A    between atoms: _230  and  _231
REMARK   93  A    between atoms: _233  and  _235
REMARK   94  A    between atoms: _235  and  _236
REMARK   95  A    between atoms: _235  and  _238
REMARK   96  A    between atoms: _238  and  _239
REMARK   97  A    between atoms: _242  and  _244
REMARK   98  A    between atoms: _244  and  _245
REMARK   99  A    between atoms: _244  and  _247
REMARK  100  A    between atoms: _247  and  _248
REMARK  101  A    between atoms: _248  and  _249
REMARK  102  A    between atoms: _251  and  _253
REMARK  103  A    between atoms: _253  and  _254
REMARK  104  A    between atoms: _253  and  _256
REMARK  105  A    between atoms: _256  and  _257
REMARK  106  A    between atoms: _259  and  _261
REMARK  107  A    between atoms: _261  and  _262
REMARK  108  A    between atoms: _261  and  _264
REMARK  109  A    between atoms: _264  and  _265
REMARK  110  A    between atoms: _268  and  _270
REMARK  111  A    between atoms: _270  and  _271
REMARK  112  A    between atoms: _270  and  _273
REMARK  113  A    between atoms: _273  and  _274
REMARK  114  A    between atoms: _274  and  _275
REMARK  115  A    between atoms: _275  and  _276
REMARK  116  A    between atoms: _285  and  _287
REMARK  117  A    between atoms: _287  and  _288
REMARK  118  A    between atoms: _291  and  _293
REMARK  119  A    between atoms: _293  and  _294
REMARK  120  A    between atoms: _297  and  _299
REMARK  121  A    between atoms: _299  and  _300
REMARK  122  A    between atoms: _299  and  _302
REMARK  123  A    between atoms: _305  and  _307
REMARK  124  A    between atoms: _307  and  _308
REMARK  125  A    between atoms: _307  and  _310
REMARK  126  A    between atoms: _310  and  _311
REMARK  127  A    between atoms: _311  and  _312
REMARK  128  A    between atoms: _312  and  _313
REMARK  129  A    between atoms: _322  and  _324
REMARK  130  A    between atoms: _324  and  _325
REMARK  131  A    between atoms: _324  and  _327
REMARK  132  A    between atoms: _327  and  _328
REMARK  133  A    between atoms: _331  and  _333
REMARK  134  A    between atoms: _333  and  _334
REMARK  135  A    between atoms: _333  and  _336
REMARK  136  A    between atoms: _336  and  _337
REMARK  137  A    between atoms: _340  and  _342
REMARK  138  A    between atoms: _342  and  _343
REMARK  139  A    between atoms: _342  and  _345
REMARK  140  A    between atoms: _345  and  _346
REMARK  141  A    between atoms: _349  and  _351
REMARK  142  A    between atoms: _351  and  _352
REMARK  143  A    between atoms: _351  and  _354
REMARK  144  A    between atoms: _354  and  _355
REMARK  145  A    between atoms: _360  and  _362
REMARK  146  A    between atoms: _362  and  _363
REMARK  147  A    between atoms: _365  and  _367
REMARK  148  A    between atoms: _367  and  _368
REMARK  149  A    between atoms: _367  and  _370
REMARK  150  A    between atoms: _370  and  _371
REMARK  151  A    between atoms: _371  and  _372
REMARK  152  A    between atoms: _375  and  _377
REMARK  153  A    between atoms: _377  and  _378
REMARK  154  A    between atoms: _377  and  _380
REMARK  155  A    between atoms: _380  and  _381
REMARK  156  A    between atoms: _381  and  _382
REMARK  157  A    between atoms: _384  and  _386
REMARK  158  A    between atoms: _386  and  _387
REMARK  159  A    between atoms: _386  and  _389
REMARK  160  A    between atoms: _392  and  _394
REMARK  161  A    between atoms: _394  and  _395
REMARK  162  A    between atoms: _394  and  _397
REMARK  163  A    between atoms: _397  and  _398
REMARK  164  A    between atoms: _398  and  _399
REMARK  165  A    between atoms: _404  and  _406
REMARK  166  A    between atoms: _406  and  _407
REMARK  167  A    between atoms: _406  and  _409
REMARK  168  A    between atoms: _409  and  _410
REMARK  169  A    between atoms: _413  and  _415
REMARK  170  A    between atoms: _415  and  _416
REMARK  171  A    between atoms: _415  and  _418
REMARK  172  A    between atoms: _418  and  _419
REMARK  173  A    between atoms: _419  and  _420
REMARK  174  A    between atoms: _420  and  _421
REMARK  175  A    between atoms: _421  and  _422
REMARK  176  A    between atoms: _426  and  _428
REMARK  177  A    between atoms: _428  and  _429
REMARK  178  A    between atoms: _428  and  _431
REMARK  179  A    between atoms: _431  and  _432
REMARK  180  A    between atoms: _437  and  _439
REMARK  181  A    between atoms: _439  and  _440
REMARK  182  A    between atoms: _442  and  _444
REMARK  183  A    between atoms: _444  and  _445
REMARK  184  A    between atoms: _447  and  _449
REMARK  185  A    between atoms: _449  and  _450
REMARK  186  A    between atoms: _449  and  _452
REMARK  187  A    between atoms: _452  and  _453
REMARK  188  A    between atoms: _456  and  _458
REMARK  189  A    between atoms: _458  and  _459
REMARK  190  A    between atoms: _461  and  _463
REMARK  191  A    between atoms: _463  and  _464
REMARK  192  A    between atoms: _463  and  _466
REMARK  193  A    between atoms: _469  and  _471
REMARK  194  A    between atoms: _471  and  _472
REMARK  195  A    between atoms: _471  and  _474
REMARK  196  A    between atoms: _474  and  _475
REMARK  197  A    between atoms: _477  and  _479
REMARK  198  A    between atoms: _479  and  _480
REMARK  199  A    between atoms: _479  and  _482
REMARK  200  A    between atoms: _482  and  _483
REMARK  201  A    between atoms: _486  and  _488
REMARK  202  A    between atoms: _488  and  _489
REMARK  203  A    between atoms: _488  and  _491
REMARK  204  A    between atoms: _491  and  _492
REMARK  205  A    between atoms: _498  and  _500
REMARK  206  A    between atoms: _500  and  _501
REMARK  207  A    between atoms: _500  and  _503
REMARK  208  A    between atoms: _503  and  _504
REMARK  209  A    between atoms: _504  and  _505
REMARK  210  A    between atoms: _510  and  _512
REMARK  211  A    between atoms: _512  and  _513
REMARK  212  A    between atoms: _512  and  _515
REMARK  213  A    between atoms: _515  and  _516
REMARK  214  A    between atoms: _519  and  _521
REMARK  215  A    between atoms: _521  and  _522
REMARK  216  A    between atoms: _521  and  _524
REMARK  217  A    between atoms: _524  and  _525
REMARK  218  A    between atoms: _530  and  _532
REMARK  219  A    between atoms: _532  and  _533
REMARK  220  A    between atoms: _536  and  _538
REMARK  221  A    between atoms: _538  and  _539
REMARK  222  A    between atoms: _538  and  _541
REMARK  223  A    between atoms: _541  and  _542
REMARK  224  A    between atoms: _542  and  _543
REMARK  225  A    between atoms: _543  and  _544
REMARK  226  A    between atoms: _553  and  _555
REMARK  227  A    between atoms: _555  and  _556
REMARK  228  A    between atoms: _555  and  _558
REMARK  229  A    between atoms: _558  and  _559
REMARK  230  A    between atoms: _565  and  _567
REMARK  231  A    between atoms: _567  and  _568
REMARK  232  A    between atoms: _567  and  _570
REMARK  233  A    between atoms: _570  and  _571
REMARK  234  A    between atoms: _571  and  _572
REMARK  235  A    between atoms: _574  and  _576
REMARK  236  A    between atoms: _576  and  _577
REMARK  237  A    between atoms: _576  and  _579
REMARK  238  A    between atoms: _579  and  _580
REMARK  239  A    between atoms: _583  and  _585
REMARK  240  A    between atoms: _585  and  _586
REMARK  241  A    between atoms: _585  and  _588
REMARK  242  A    between atoms: _588  and  _589
REMARK  243  A    between atoms: _596  and  _597
REMARK  244  A    between atoms: _602  and  _604
REMARK  245  A    between atoms: _604  and  _605
REMARK  246  A    between atoms: _604  and  _607
REMARK  247  A    between atoms: _607  and  _608
REMARK  248  A    between atoms: _614  and  _616
REMARK  249  A    between atoms: _616  and  _617
REMARK  250  A    between atoms: _616  and  _619
REMARK  251  A    between atoms: _619  and  _620
REMARK                            x       y       z     vdW  Elec       q    Type
REMARK                         _______ _______ _______ _____ _____    ______ ____
ROOT
ATOM      1  O   HOH     1      23.798   1.609  -5.923  0.00  0.00    +0.000 OA
ENDROOT
TORSDOF 0
REMARK  Name = ../refined-set-2016/1n46/1n46_pocket.pdb
REMARK  251 active torsions:
REMARK  status: ('A' for Active; 'I' for Inactive)
REMARK    1  A    between atoms: _1  and  _3
REMARK    2  A    between atoms: _3  and  _4
REMARK    3  A    between atoms: _3  and  _6
REMARK    4  A    between atoms: _6  and  _7
REMARK    5  A    between atoms: _12  and  _14
REMARK    6  A    between atoms: _14  and  _15
REMARK    7  A    between atoms: _14  and  _17
REMARK    8  A    between atoms: _17  and  _18
REMARK    9  A    between atoms: _21  and  _23
REMARK   10  A    between atoms: _23  and  _24
REMARK   11  A    between atoms: _23  and  _26
REMARK   12  A    between atoms: _26  and  _27
REMARK   13  A    between atoms: _32  and  _34
REMARK   14  A    between atoms: _34  and  _35
REMARK   15  A    between atoms: _38  and  _40
REMARK   16  A    between atoms: _40  and  _41
REMARK   17  A    between atoms: _40  and  _43
REMARK   18  A    between atoms: _46  and  _48
REMARK   19  A    between atoms: _48  and  _49
REMARK   20  A    between atoms: _48  and  _51
REMARK   21  A    between atoms: _51  and  _52
REMARK   22  A    between atoms: _55  and  _57
REMARK   23  A    between atoms: _57  and  _58
REMARK   24  A    between atoms: _61  and  _63
REMARK   25  A    between atoms: _63  and  _64
REMARK   26  A    between atoms: _63  and  _66
REMARK   27  A    between atoms: _66  and  _67
REMARK   28  A    between atoms: _73  and  _75
REMARK   29  A    between atoms: _75  and  _76
REMARK   30  A    between atoms: _75  and  _78
REMARK   31  A    between atoms: _78  and  _79
REMARK   32  A    between atoms: _81  and  _83
REMARK   33  A    between atoms: _83  and  _84
REMARK   34  A    between atoms: _83  and  _86
REMARK   35  A    between atoms: _86  and  _87
REMARK   36  A    between atoms: _92  and  _94
REMARK   37  A    between atoms: _94  and  _95
REMARK   38  A    between atoms: _94  and  _97
REMARK   39  A    between atoms: _97  and  _98
REMARK   40  A    between atoms: _104  and  _106
REMARK   41  A    between atoms: _106  and  _107
REMARK   42  A    between atoms: _106  and  _109
REMARK   43  A    between atoms: _109  and  _110
REMARK   44  A    between atoms: _113  and  _115
REMARK   45  A    between atoms: _115  and  _116
REMARK   46  A    between atoms: _115  and  _118
REMARK   47  A    between atoms: _118  and  _119
REMARK   48  A    between atoms: _119  and  _120
REMARK   49  A    between atoms: _120  and  _121
REMARK   50  A    between atoms: _121  and  _122
REMARK   51  A    between atoms: _126  and  _128
REMARK   52  A    between atoms: _128  and  _129
REMARK   53  A    between atoms: _128  and  _131
REMARK   54  A    between atoms: _131  and  _132
REMARK   55  A    between atoms: _135  and  _137
REMARK   56  A    between atoms: _137  and  _138
REMARK   57  A    between atoms: _137  and  _140
REMARK   58  A    between atoms: _140  and  _141
REMARK   59  A    between atoms: _144  and  _146
REMARK   60  A    between atoms: _146  and  _147
REMARK   61  A    between atoms: _146  and  _149
REMARK   62  A    between atoms: _149  and  _150
REMARK   63  A    between atoms: _154  and  _155
REMARK   64  A    between atoms: _160  and  _162
REMARK   65  A    between atoms: _162  and  _163
REMARK   66  A    between atoms: _166  and  _168
REMARK   67  A    between atoms: _168  and  _169
REMARK   68  A    between atoms: _168  and  _171
REMARK   69  A    between atoms: _171  and  _172
REMARK   70  A    between atoms: _177  and  _178
REMARK   71  A    between atoms: _177  and  _180
REMARK   72  A    between atoms: _180  and  _181
REMARK   73  A    between atoms: _184  and  _186
REMARK   74  A    between atoms: _186  and  _187
REMARK   75  A    between atoms: _186  and  _189
REMARK   76  A    between atoms: _189  and  _190
REMARK   77  A    between atoms: _190  and  _191
REMARK   78  A    between atoms: _191  and  _192
REMARK   79  A    between atoms: _201  and  _203
REMARK   80  A    between atoms: _203  and  _204
REMARK   81  A    between atoms: _203  and  _206
REMARK   82  A    between atoms: _209  and  _211
REMARK   83  A    between atoms: _211  and  _212
REMARK   84  A    between atoms: _211  and  _214
REMARK   85  A    between atoms: _217  and  _219
REMARK   86  A    between atoms: _219  and  _220
REMARK   87  A    between atoms: _219  and  _222
REMARK   88  A    between atoms: _224  and  _226
REMARK   89  A    between atoms: _226  and  _227
REMARK   90  A    between atoms: _226  and  _229
REMARK   91  A    between atoms: _229  and  _230
REMARK   92  A    between atoms: _230  and  _231
REMARK   93  A    between atoms: _233  and  _235
REMARK   94  A    between atoms: _235  and  _236
REMARK   95  A    between atoms: _235  and  _238
REMARK   96  A    between atoms: _238  and  _239
REMARK   97  A    between atoms: _242  and  _244
REMARK   98  A    between atoms: _244  and  _245
REMARK   99  A    between atoms: _244  and  _247
REMARK  100  A    between atoms: _247  and  _248
REMARK  101  A    between atoms: _248  and  _249
REMARK  102  A    between atoms: _251  and  _253
REMARK  103  A    between atoms: _253  and  _254
REMARK  104  A    between atoms: _253  and  _256
REMARK  105  A    between atoms: _256  and  _257
REMARK  106  A    between atoms: _259  and  _261
REMARK  107  A    between atoms: _261  and  _262
REMARK  108  A    between atoms: _261  and  _264
REMARK  109  A    between atoms: _264  and  _265
REMARK  110  A    between atoms: _268  and  _270
REMARK  111  A    between atoms: _270  and  _271
REMARK  112  A    between atoms: _270  and  _273
REMARK  113  A    between atoms: _273  and  _274
REMARK  114  A    between atoms: _274  and  _275
REMARK  115  A    between atoms: _275  and  _276
REMARK  116  A    between atoms: _285  and  _287
REMARK  117  A    between atoms: _287  and  _288
REMARK  118  A    between atoms: _291  and  _293
REMARK  119  A    between atoms: _293  and  _294
REMARK  120  A    between atoms: _297  and  _299
REMARK  121  A    between atoms: _299  and  _300
REMARK  122  A    between atoms: _299  and  _302
REMARK  123  A    between atoms: _305  and  _307
REMARK  124  A    between atoms: _307  and  _308
REMARK  125  A    between atoms: _307  and  _310
REMARK  126  A    between atoms: _310  and  _311
REMARK  127  A    between atoms: _311  and  _312
REMARK  128  A    between atoms: _312  and  _313
REMARK  129  A    between atoms: _322  and  _324
REMARK  130  A    between atoms: _324  and  _325
REMARK  131  A    between atoms: _324  and  _327
REMARK  132  A    between atoms: _327  and  _328
REMARK  133  A    between atoms: _331  and  _333
REMARK  134  A    between atoms: _333  and  _334
REMARK  135  A    between atoms: _333  and  _336
REMARK  136  A    between atoms: _336  and  _337
REMARK  137  A    between atoms: _340  and  _342
REMARK  138  A    between atoms: _342  and  _343
REMARK  139  A    between atoms: _342  and  _345
REMARK  140  A    between atoms: _345  and  _346
REMARK  141  A    between atoms: _349  and  _351
REMARK  142  A    between atoms: _351  and  _352
REMARK  143  A    between atoms: _351  and  _354
REMARK  144  A    between atoms: _354  and  _355
REMARK  145  A    between atoms: _360  and  _362
REMARK  146  A    between atoms: _362  and  _363
REMARK  147  A    between atoms: _365  and  _367
REMARK  148  A    between atoms: _367  and  _368
REMARK  149  A    between atoms: _367  and  _370
REMARK  150  A    between atoms: _370  and  _371
REMARK  151  A    between atoms: _371  and  _372
REMARK  152  A    between atoms: _375  and  _377
REMARK  153  A    between atoms: _377  and  _378
REMARK  154  A    between atoms: _377  and  _380
REMARK  155  A    between atoms: _380  and  _381
REMARK  156  A    between atoms: _381  and  _382
REMARK  157  A    between atoms: _384  and  _386
REMARK  158  A    between atoms: _386  and  _387
REMARK  159  A    between atoms: _386  and  _389
REMARK  160  A    between atoms: _392  and  _394
REMARK  161  A    between atoms: _394  and  _395
REMARK  162  A    between atoms: _394  and  _397
REMARK  163  A    between atoms: _397  and  _398
REMARK  164  A    between atoms: _398  and  _399
REMARK  165  A    between atoms: _404  and  _406
REMARK  166  A    between atoms: _406  and  _407
REMARK  167  A    between atoms: _406  and  _409
REMARK  168  A    between atoms: _409  and  _410
REMARK  169  A    between atoms: _413  and  _415
REMARK  170  A    between atoms: _415  and  _416
REMARK  171  A    between atoms: _415  and  _418
REMARK  172  A    between atoms: _418  and  _419
REMARK  173  A    between atoms: _419  and  _420
REMARK  174  A    between atoms: _420  and  _421
REMARK  175  A    between atoms: _421  and  _422
REMARK  176  A    between atoms: _426  and  _428
REMARK  177  A    between atoms: _428  and  _429
REMARK  178  A    between atoms: _428  and  _431
REMARK  179  A    between atoms: _431  and  _432
REMARK  180  A    between atoms: _437  and  _439
REMARK  181  A    between atoms: _439  and  _440
REMARK  182  A    between atoms: _442  and  _444
REMARK  183  A    between atoms: _444  and  _445
REMARK  184  A    between atoms: _447  and  _449
REMARK  185  A    between atoms: _449  and  _450
REMARK  186  A    between atoms: _449  and  _452
REMARK  187  A    between atoms: _452  and  _453
REMARK  188  A    between atoms: _456  and  _458
REMARK  189  A    between atoms: _458  and  _459
REMARK  190  A    between atoms: _461  and  _463
REMARK  191  A    between atoms: _463  and  _464
REMARK  192  A    between atoms: _463  and  _466
REMARK  193  A    between atoms: _469  and  _471
REMARK  194  A    between atoms: _471  and  _472
REMARK  195  A    between atoms: _471  and  _474
REMARK  196  A    between atoms: _474  and  _475
REMARK  197  A    between atoms: _477  and  _479
REMARK  198  A    between atoms: _479  and  _480
REMARK  199  A    between atoms: _479  and  _482
REMARK  200  A    between atoms: _482  and  _483
REMARK  201  A    between atoms: _486  and  _488
REMARK  202  A    between atoms: _488  and  _489
REMARK  203  A    between atoms: _488  and  _491
REMARK  204  A    between atoms: _491  and  _492
REMARK  205  A    between atoms: _498  and  _500
REMARK  206  A    between atoms: _500  and  _501
REMARK  207  A    between atoms: _500  and  _503
REMARK  208  A    between atoms: _503  and  _504
REMARK  209  A    between atoms: _504  and  _505
REMARK  210  A    between atoms: _510  and  _512
REMARK  211  A    between atoms: _512  and  _513
REMARK  212  A    between atoms: _512  and  _515
REMARK  213  A    between atoms: _515  and  _516
REMARK  214  A    between atoms: _519  and  _521
REMARK  215  A    between atoms: _521  and  _522
REMARK  216  A    between atoms: _521  and  _524
REMARK  217  A    between atoms: _524  and  _525
REMARK  218  A    between atoms: _530  and  _532
REMARK  219  A    between atoms: _532  and  _533
REMARK  220  A    between atoms: _536  and  _538
REMARK  221  A    between atoms: _538  and  _539
REMARK  222  A    between atoms: _538  and  _541
REMARK  223  A    between atoms: _541  and  _542
REMARK  224  A    between atoms: _542  and  _543
REMARK  225  A    between atoms: _543  and  _544
REMARK  226  A    between atoms: _553  and  _555
REMARK  227  A    between atoms: _555  and  _556
REMARK  228  A    between atoms: _555  and  _558
REMARK  229  A    between atoms: _558  and  _559
REMARK  230  A    between atoms: _565  and  _567
REMARK  231  A    between atoms: _567  and  _568
REMARK  232  A    between atoms: _567  and  _570
REMARK  233  A    between atoms: _570  and  _571
REMARK  234  A    between atoms: _571  and  _572
REMARK  235  A    between atoms: _574  and  _576
REMARK  236  A    between atoms: _576  and  _577
REMARK  237  A    between atoms: _576  and  _579
REMARK  238  A    between atoms: _579  and  _580
REMARK  239  A    between atoms: _583  and  _585
REMARK  240  A    between atoms: _585  and  _586
REMARK  241  A    between atoms: _585  and  _588
REMARK  242  A    between atoms: _588  and  _589
REMARK  243  A    between atoms: _596  and  _597
REMARK  244  A    between atoms: _602  and  _604
REMARK  245  A    between atoms: _604  and  _605
REMARK  246  A    between atoms: _604  and  _607
REMARK  247  A    between atoms: _607  and  _608
REMARK  248  A    between atoms: _614  and  _616
REMARK  249  A    between atoms: _616  and  _617
REMARK  250  A    between atoms: _616  and  _619
REMARK  251  A    between atoms: _619  and  _620
REMARK                            x       y       z     vdW  Elec       q    Type
REMARK                         _______ _______ _______ _____ _____    ______ ____
ROOT
ATOM      1  O   HOH     1      22.157  16.329  -6.362  0.00  0.00    +0.000 OA
ENDROOT
TORSDOF 0
