REMARK  Name = ../refined-set-2016/2wl0/2wl0_pocket.pdb
REMARK  240 active torsions:
REMARK  status: ('A' for Active; 'I' for Inactive)
REMARK    1  A    between atoms: _1  and  _3
REMARK    2  A    between atoms: _3  and  _4
REMARK    3  A    between atoms: _3  and  _6
REMARK    4  A    between atoms: _6  and  _7
REMARK    5  A    between atoms: _7  and  _8
REMARK    6  A    between atoms: _8  and  _9
REMARK    7  A    between atoms: _18  and  _20
REMARK    8  A    between atoms: _20  and  _21
REMARK    9  A    between atoms: _20  and  _23
REMARK   10  A    between atoms: _23  and  _24
REMARK   11  A    between atoms: _27  and  _29
REMARK   12  A    between atoms: _29  and  _30
REMARK   13  A    between atoms: _29  and  _32
REMARK   14  A    between atoms: _32  and  _33
REMARK   15  A    between atoms: _36  and  _38
REMARK   16  A    between atoms: _38  and  _39
REMARK   17  A    between atoms: _38  and  _41
REMARK   18  A    between atoms: _41  and  _42
REMARK   19  A    between atoms: _45  and  _47
REMARK   20  A    between atoms: _47  and  _48
REMARK   21  A    between atoms: _47  and  _50
REMARK   22  A    between atoms: _50  and  _51
REMARK   23  A    between atoms: _54  and  _56
REMARK   24  A    between atoms: _56  and  _57
REMARK   25  A    between atoms: _59  and  _61
REMARK   26  A    between atoms: _61  and  _62
REMARK   27  A    between atoms: _65  and  _67
REMARK   28  A    between atoms: _67  and  _68
REMARK   29  A    between atoms: _67  and  _70
REMARK   30  A    between atoms: _70  and  _71
REMARK   31  A    between atoms: _74  and  _76
REMARK   32  A    between atoms: _76  and  _77
REMARK   33  A    between atoms: _76  and  _79
REMARK   34  A    between atoms: _79  and  _80
REMARK   35  A    between atoms: _83  and  _85
REMARK   36  A    between atoms: _85  and  _86
REMARK   37  A    between atoms: _85  and  _88
REMARK   38  A    between atoms: _88  and  _89
REMARK   39  A    between atoms: _92  and  _94
REMARK   40  A    between atoms: _94  and  _95
REMARK   41  A    between atoms: _94  and  _97
REMARK   42  A    between atoms: _100  and  _102
REMARK   43  A    between atoms: _102  and  _103
REMARK   44  A    between atoms: _102  and  _105
REMARK   45  A    between atoms: _105  and  _106
REMARK   46  A    between atoms: _109  and  _111
REMARK   47  A    between atoms: _111  and  _112
REMARK   48  A    between atoms: _111  and  _114
REMARK   49  A    between atoms: _114  and  _115
REMARK   50  A    between atoms: _115  and  _116
REMARK   51  A    between atoms: _116  and  _117
REMARK   52  A    between atoms: _117  and  _118
REMARK   53  A    between atoms: _122  and  _124
REMARK   54  A    between atoms: _124  and  _125
REMARK   55  A    between atoms: _124  and  _127
REMARK   56  A    between atoms: _127  and  _128
REMARK   57  A    between atoms: _128  and  _129
REMARK   58  A    between atoms: _131  and  _133
REMARK   59  A    between atoms: _133  and  _134
REMARK   60  A    between atoms: _133  and  _136
REMARK   61  A    between atoms: _136  and  _137
REMARK   62  A    between atoms: _140  and  _142
REMARK   63  A    between atoms: _142  and  _143
REMARK   64  A    between atoms: _145  and  _147
REMARK   65  A    between atoms: _147  and  _148
REMARK   66  A    between atoms: _150  and  _152
REMARK   67  A    between atoms: _152  and  _153
REMARK   68  A    between atoms: _152  and  _155
REMARK   69  A    between atoms: _155  and  _156
REMARK   70  A    between atoms: _159  and  _161
REMARK   71  A    between atoms: _161  and  _162
REMARK   72  A    between atoms: _164  and  _166
REMARK   73  A    between atoms: _166  and  _167
REMARK   74  A    between atoms: _169  and  _171
REMARK   75  A    between atoms: _171  and  _172
REMARK   76  A    between atoms: _171  and  _174
REMARK   77  A    between atoms: _174  and  _175
REMARK   78  A    between atoms: _181  and  _183
REMARK   79  A    between atoms: _183  and  _184
REMARK   80  A    between atoms: _183  and  _186
REMARK   81  A    between atoms: _186  and  _187
REMARK   82  A    between atoms: _190  and  _192
REMARK   83  A    between atoms: _192  and  _193
REMARK   84  A    between atoms: _192  and  _195
REMARK   85  A    between atoms: _198  and  _200
REMARK   86  A    between atoms: _200  and  _201
REMARK   87  A    between atoms: _200  and  _203
REMARK   88  A    between atoms: _203  and  _204
REMARK   89  A    between atoms: _207  and  _209
REMARK   90  A    between atoms: _209  and  _210
REMARK   91  A    between atoms: _209  and  _212
REMARK   92  A    between atoms: _212  and  _213
REMARK   93  A    between atoms: _217  and  _218
REMARK   94  A    between atoms: _223  and  _225
REMARK   95  A    between atoms: _225  and  _226
REMARK   96  A    between atoms: _225  and  _228
REMARK   97  A    between atoms: _228  and  _229
REMARK   98  A    between atoms: _232  and  _234
REMARK   99  A    between atoms: _234  and  _235
REMARK  100  A    between atoms: _234  and  _237
REMARK  101  A    between atoms: _237  and  _238
REMARK  102  A    between atoms: _243  and  _245
REMARK  103  A    between atoms: _245  and  _246
REMARK  104  A    between atoms: _245  and  _248
REMARK  105  A    between atoms: _251  and  _253
REMARK  106  A    between atoms: _253  and  _254
REMARK  107  A    between atoms: _253  and  _256
REMARK  108  A    between atoms: _256  and  _257
REMARK  109  A    between atoms: _260  and  _262
REMARK  110  A    between atoms: _262  and  _263
REMARK  111  A    between atoms: _265  and  _267
REMARK  112  A    between atoms: _267  and  _268
REMARK  113  A    between atoms: _267  and  _270
REMARK  114  A    between atoms: _270  and  _271
REMARK  115  A    between atoms: _271  and  _272
REMARK  116  A    between atoms: _272  and  _273
REMARK  117  A    between atoms: _282  and  _284
REMARK  118  A    between atoms: _284  and  _285
REMARK  119  A    between atoms: _284  and  _287
REMARK  120  A    between atoms: _287  and  _288
REMARK  121  A    between atoms: _293  and  _295
REMARK  122  A    between atoms: _295  and  _296
REMARK  123  A    between atoms: _295  and  _298
REMARK  124  A    between atoms: _298  and  _299
REMARK  125  A    between atoms: _299  and  _300
REMARK  126  A    between atoms: _300  and  _301
REMARK  127  A    between atoms: _310  and  _312
REMARK  128  A    between atoms: _312  and  _313
REMARK  129  A    between atoms: _312  and  _315
REMARK  130  A    between atoms: _315  and  _316
REMARK  131  A    between atoms: _319  and  _321
REMARK  132  A    between atoms: _321  and  _322
REMARK  133  A    between atoms: _321  and  _324
REMARK  134  A    between atoms: _324  and  _325
REMARK  135  A    between atoms: _328  and  _330
REMARK  136  A    between atoms: _330  and  _331
REMARK  137  A    between atoms: _330  and  _333
REMARK  138  A    between atoms: _333  and  _334
REMARK  139  A    between atoms: _337  and  _339
REMARK  140  A    between atoms: _339  and  _340
REMARK  141  A    between atoms: _339  and  _342
REMARK  142  A    between atoms: _342  and  _343
REMARK  143  A    between atoms: _346  and  _348
REMARK  144  A    between atoms: _348  and  _349
REMARK  145  A    between atoms: _348  and  _351
REMARK  146  A    between atoms: _351  and  _352
REMARK  147  A    between atoms: _355  and  _357
REMARK  148  A    between atoms: _357  and  _358
REMARK  149  A    between atoms: _360  and  _362
REMARK  150  A    between atoms: _362  and  _363
REMARK  151  A    between atoms: _366  and  _368
REMARK  152  A    between atoms: _368  and  _369
REMARK  153  A    between atoms: _368  and  _371
REMARK  154  A    between atoms: _371  and  _372
REMARK  155  A    between atoms: _375  and  _377
REMARK  156  A    between atoms: _377  and  _378
REMARK  157  A    between atoms: _377  and  _380
REMARK  158  A    between atoms: _380  and  _381
REMARK  159  A    between atoms: _384  and  _386
REMARK  160  A    between atoms: _386  and  _387
REMARK  161  A    between atoms: _386  and  _389
REMARK  162  A    between atoms: _389  and  _390
REMARK  163  A    between atoms: _393  and  _395
REMARK  164  A    between atoms: _395  and  _396
REMARK  165  A    between atoms: _395  and  _398
REMARK  166  A    between atoms: _401  and  _403
REMARK  167  A    between atoms: _403  and  _404
REMARK  168  A    between atoms: _403  and  _406
REMARK  169  A    between atoms: _406  and  _407
REMARK  170  A    between atoms: _407  and  _408
REMARK  171  A    between atoms: _408  and  _409
REMARK  172  A    between atoms: _409  and  _410
REMARK  173  A    between atoms: _414  and  _416
REMARK  174  A    between atoms: _416  and  _417
REMARK  175  A    between atoms: _416  and  _419
REMARK  176  A    between atoms: _419  and  _420
REMARK  177  A    between atoms: _420  and  _421
REMARK  178  A    between atoms: _423  and  _425
REMARK  179  A    between atoms: _425  and  _426
REMARK  180  A    between atoms: _425  and  _428
REMARK  181  A    between atoms: _428  and  _429
REMARK  182  A    between atoms: _432  and  _434
REMARK  183  A    between atoms: _434  and  _435
REMARK  184  A    between atoms: _437  and  _439
REMARK  185  A    between atoms: _439  and  _440
REMARK  186  A    between atoms: _442  and  _444
REMARK  187  A    between atoms: _444  and  _445
REMARK  188  A    between atoms: _444  and  _447
REMARK  189  A    between atoms: _447  and  _448
REMARK  190  A    between atoms: _451  and  _453
REMARK  191  A    between atoms: _453  and  _454
REMARK  192  A    between atoms: _456  and  _458
REMARK  193  A    between atoms: _458  and  _459
REMARK  194  A    between atoms: _461  and  _463
REMARK  195  A    between atoms: _463  and  _464
REMARK  196  A    between atoms: _463  and  _466
REMARK  197  A    between atoms: _466  and  _467
REMARK  198  A    between atoms: _473  and  _475
REMARK  199  A    between atoms: _475  and  _476
REMARK  200  A    between atoms: _475  and  _478
REMARK  201  A    between atoms: _478  and  _479
REMARK  202  A    between atoms: _482  and  _484
REMARK  203  A    between atoms: _484  and  _485
REMARK  204  A    between atoms: _484  and  _487
REMARK  205  A    between atoms: _490  and  _492
REMARK  206  A    between atoms: _492  and  _493
REMARK  207  A    between atoms: _492  and  _495
REMARK  208  A    between atoms: _495  and  _496
REMARK  209  A    between atoms: _499  and  _501
REMARK  210  A    between atoms: _501  and  _502
REMARK  211  A    between atoms: _501  and  _504
REMARK  212  A    between atoms: _504  and  _505
REMARK  213  A    between atoms: _509  and  _510
REMARK  214  A    between atoms: _515  and  _517
REMARK  215  A    between atoms: _517  and  _518
REMARK  216  A    between atoms: _517  and  _520
REMARK  217  A    between atoms: _520  and  _521
REMARK  218  A    between atoms: _524  and  _526
REMARK  219  A    between atoms: _526  and  _527
REMARK  220  A    between atoms: _526  and  _529
REMARK  221  A    between atoms: _529  and  _530
REMARK  222  A    between atoms: _535  and  _537
REMARK  223  A    between atoms: _537  and  _538
REMARK  224  A    between atoms: _537  and  _540
REMARK  225  A    between atoms: _543  and  _545
REMARK  226  A    between atoms: _545  and  _546
REMARK  227  A    between atoms: _545  and  _548
REMARK  228  A    between atoms: _548  and  _549
REMARK  229  A    between atoms: _552  and  _554
REMARK  230  A    between atoms: _554  and  _555
REMARK  231  A    between atoms: _557  and  _559
REMARK  232  A    between atoms: _559  and  _560
REMARK  233  A    between atoms: _559  and  _562
REMARK  234  A    between atoms: _562  and  _563
REMARK  235  A    between atoms: _563  and  _564
REMARK  236  A    between atoms: _564  and  _565
REMARK  237  A    between atoms: _574  and  _576
REMARK  238  A    between atoms: _576  and  _577
REMARK  239  A    between atoms: _576  and  _579
REMARK  240  A    between atoms: _579  and  _580
REMARK                            x       y       z     vdW  Elec       q    Type
REMARK                         _______ _______ _______ _____ _____    ______ ____
ROOT
ATOM      1  NE  ARG A   1      22.735  21.493   8.218  0.00  0.00    -0.265 N 
ATOM      2  CZ  ARG A   1      22.134  20.728   9.125  0.00  0.00    +0.342 C 
ATOM      3  NH2 ARG A   1      22.853  20.068  10.026  0.00  0.00    -0.292 N 
ATOM      4 HH21 ARG A   1      22.379  19.471  10.733  0.00  0.00    +0.255 HD
ATOM      5 HH22 ARG A   1      23.890  20.148  10.024  0.00  0.00    +0.255 HD
ATOM      6  NH1 ARG A   1      20.814  20.629   9.141  0.00  0.00    -0.292 N 
ATOM      7 HH11 ARG A   1      20.346  20.030   9.851  0.00  0.00    +0.255 HD
ATOM      8 HH12 ARG A   1      20.245  21.150   8.444  0.00  0.00    +0.255 HD
ATOM      9  HE  ARG A   1      22.138  21.993   7.529  0.00  0.00    +0.259 HD
ENDROOT
BRANCH   1  10
ATOM     10  CD  ARG A   1      24.180  21.674   8.130  0.00  0.00    +0.174 C 
BRANCH  10  11
ATOM     11  CG  ARG A   1      24.589  22.587   6.978  0.00  0.00    +0.045 C 
BRANCH  11  12
ATOM     12  CB  ARG A   1      24.782  24.037   7.407  0.00  0.00    +0.029 C 
BRANCH  12  13
ATOM     13  CA  ARG A   1      25.409  24.893   6.305  0.00  0.00    +0.133 C 
BRANCH  13  14
ATOM     14  N   ARG A   1      26.673  24.307   5.882  0.00  0.00    -0.239 NA
ATOM     15  H   ARG A   1      27.022  23.442   6.342  0.00  0.00    +0.142 HD
ENDBRANCH  13  14
BRANCH  13  16
ATOM     16  C   ARG A   1      25.695  26.308   6.799  0.00  0.00    +0.224 C 
ATOM     17  O   ARG A   1      26.662  26.541   7.529  0.00  0.00    -0.287 OA
ENDBRANCH  13  16
ENDBRANCH  12  13
ENDBRANCH  11  12
ENDBRANCH  10  11
ENDBRANCH   1  10
TORSDOF 6
REMARK  Name = ../refined-set-2016/2wl0/2wl0_pocket.pdb
REMARK  240 active torsions:
REMARK  status: ('A' for Active; 'I' for Inactive)
REMARK    1  A    between atoms: _1  and  _3
REMARK    2  A    between atoms: _3  and  _4
REMARK    3  A    between atoms: _3  and  _6
REMARK    4  A    between atoms: _6  and  _7
REMARK    5  A    between atoms: _7  and  _8
REMARK    6  A    between atoms: _8  and  _9
REMARK    7  A    between atoms: _18  and  _20
REMARK    8  A    between atoms: _20  and  _21
REMARK    9  A    between atoms: _20  and  _23
REMARK   10  A    between atoms: _23  and  _24
REMARK   11  A    between atoms: _27  and  _29
REMARK   12  A    between atoms: _29  and  _30
REMARK   13  A    between atoms: _29  and  _32
REMARK   14  A    between atoms: _32  and  _33
REMARK   15  A    between atoms: _36  and  _38
REMARK   16  A    between atoms: _38  and  _39
REMARK   17  A    between atoms: _38  and  _41
REMARK   18  A    between atoms: _41  and  _42
REMARK   19  A    between atoms: _45  and  _47
REMARK   20  A    between atoms: _47  and  _48
REMARK   21  A    between atoms: _47  and  _50
REMARK   22  A    between atoms: _50  and  _51
REMARK   23  A    between atoms: _54  and  _56
REMARK   24  A    between atoms: _56  and  _57
REMARK   25  A    between atoms: _59  and  _61
REMARK   26  A    between atoms: _61  and  _62
REMARK   27  A    between atoms: _65  and  _67
REMARK   28  A    between atoms: _67  and  _68
REMARK   29  A    between atoms: _67  and  _70
REMARK   30  A    between atoms: _70  and  _71
REMARK   31  A    between atoms: _74  and  _76
REMARK   32  A    between atoms: _76  and  _77
REMARK   33  A    between atoms: _76  and  _79
REMARK   34  A    between atoms: _79  and  _80
REMARK   35  A    between atoms: _83  and  _85
REMARK   36  A    between atoms: _85  and  _86
REMARK   37  A    between atoms: _85  and  _88
REMARK   38  A    between atoms: _88  and  _89
REMARK   39  A    between atoms: _92  and  _94
REMARK   40  A    between atoms: _94  and  _95
REMARK   41  A    between atoms: _94  and  _97
REMARK   42  A    between atoms: _100  and  _102
REMARK   43  A    between atoms: _102  and  _103
REMARK   44  A    between atoms: _102  and  _105
REMARK   45  A    between atoms: _105  and  _106
REMARK   46  A    between atoms: _109  and  _111
REMARK   47  A    between atoms: _111  and  _112
REMARK   48  A    between atoms: _111  and  _114
REMARK   49  A    between atoms: _114  and  _115
REMARK   50  A    between atoms: _115  and  _116
REMARK   51  A    between atoms: _116  and  _117
REMARK   52  A    between atoms: _117  and  _118
REMARK   53  A    between atoms: _122  and  _124
REMARK   54  A    between atoms: _124  and  _125
REMARK   55  A    between atoms: _124  and  _127
REMARK   56  A    between atoms: _127  and  _128
REMARK   57  A    between atoms: _128  and  _129
REMARK   58  A    between atoms: _131  and  _133
REMARK   59  A    between atoms: _133  and  _134
REMARK   60  A    between atoms: _133  and  _136
REMARK   61  A    between atoms: _136  and  _137
REMARK   62  A    between atoms: _140  and  _142
REMARK   63  A    between atoms: _142  and  _143
REMARK   64  A    between atoms: _145  and  _147
REMARK   65  A    between atoms: _147  and  _148
REMARK   66  A    between atoms: _150  and  _152
REMARK   67  A    between atoms: _152  and  _153
REMARK   68  A    between atoms: _152  and  _155
REMARK   69  A    between atoms: _155  and  _156
REMARK   70  A    between atoms: _159  and  _161
REMARK   71  A    between atoms: _161  and  _162
REMARK   72  A    between atoms: _164  and  _166
REMARK   73  A    between atoms: _166  and  _167
REMARK   74  A    between atoms: _169  and  _171
REMARK   75  A    between atoms: _171  and  _172
REMARK   76  A    between atoms: _171  and  _174
REMARK   77  A    between atoms: _174  and  _175
REMARK   78  A    between atoms: _181  and  _183
REMARK   79  A    between atoms: _183  and  _184
REMARK   80  A    between atoms: _183  and  _186
REMARK   81  A    between atoms: _186  and  _187
REMARK   82  A    between atoms: _190  and  _192
REMARK   83  A    between atoms: _192  and  _193
REMARK   84  A    between atoms: _192  and  _195
REMARK   85  A    between atoms: _198  and  _200
REMARK   86  A    between atoms: _200  and  _201
REMARK   87  A    between atoms: _200  and  _203
REMARK   88  A    between atoms: _203  and  _204
REMARK   89  A    between atoms: _207  and  _209
REMARK   90  A    between atoms: _209  and  _210
REMARK   91  A    between atoms: _209  and  _212
REMARK   92  A    between atoms: _212  and  _213
REMARK   93  A    between atoms: _217  and  _218
REMARK   94  A    between atoms: _223  and  _225
REMARK   95  A    between atoms: _225  and  _226
REMARK   96  A    between atoms: _225  and  _228
REMARK   97  A    between atoms: _228  and  _229
REMARK   98  A    between atoms: _232  and  _234
REMARK   99  A    between atoms: _234  and  _235
REMARK  100  A    between atoms: _234  and  _237
REMARK  101  A    between atoms: _237  and  _238
REMARK  102  A    between atoms: _243  and  _245
REMARK  103  A    between atoms: _245  and  _246
REMARK  104  A    between atoms: _245  and  _248
REMARK  105  A    between atoms: _251  and  _253
REMARK  106  A    between atoms: _253  and  _254
REMARK  107  A    between atoms: _253  and  _256
REMARK  108  A    between atoms: _256  and  _257
REMARK  109  A    between atoms: _260  and  _262
REMARK  110  A    between atoms: _262  and  _263
REMARK  111  A    between atoms: _265  and  _267
REMARK  112  A    between atoms: _267  and  _268
REMARK  113  A    between atoms: _267  and  _270
REMARK  114  A    between atoms: _270  and  _271
REMARK  115  A    between atoms: _271  and  _272
REMARK  116  A    between atoms: _272  and  _273
REMARK  117  A    between atoms: _282  and  _284
REMARK  118  A    between atoms: _284  and  _285
REMARK  119  A    between atoms: _284  and  _287
REMARK  120  A    between atoms: _287  and  _288
REMARK  121  A    between atoms: _293  and  _295
REMARK  122  A    between atoms: _295  and  _296
REMARK  123  A    between atoms: _295  and  _298
REMARK  124  A    between atoms: _298  and  _299
REMARK  125  A    between atoms: _299  and  _300
REMARK  126  A    between atoms: _300  and  _301
REMARK  127  A    between atoms: _310  and  _312
REMARK  128  A    between atoms: _312  and  _313
REMARK  129  A    between atoms: _312  and  _315
REMARK  130  A    between atoms: _315  and  _316
REMARK  131  A    between atoms: _319  and  _321
REMARK  132  A    between atoms: _321  and  _322
REMARK  133  A    between atoms: _321  and  _324
REMARK  134  A    between atoms: _324  and  _325
REMARK  135  A    between atoms: _328  and  _330
REMARK  136  A    between atoms: _330  and  _331
REMARK  137  A    between atoms: _330  and  _333
REMARK  138  A    between atoms: _333  and  _334
REMARK  139  A    between atoms: _337  and  _339
REMARK  140  A    between atoms: _339  and  _340
REMARK  141  A    between atoms: _339  and  _342
REMARK  142  A    between atoms: _342  and  _343
REMARK  143  A    between atoms: _346  and  _348
REMARK  144  A    between atoms: _348  and  _349
REMARK  145  A    between atoms: _348  and  _351
REMARK  146  A    between atoms: _351  and  _352
REMARK  147  A    between atoms: _355  and  _357
REMARK  148  A    between atoms: _357  and  _358
REMARK  149  A    between atoms: _360  and  _362
REMARK  150  A    between atoms: _362  and  _363
REMARK  151  A    between atoms: _366  and  _368
REMARK  152  A    between atoms: _368  and  _369
REMARK  153  A    between atoms: _368  and  _371
REMARK  154  A    between atoms: _371  and  _372
REMARK  155  A    between atoms: _375  and  _377
REMARK  156  A    between atoms: _377  and  _378
REMARK  157  A    between atoms: _377  and  _380
REMARK  158  A    between atoms: _380  and  _381
REMARK  159  A    between atoms: _384  and  _386
REMARK  160  A    between atoms: _386  and  _387
REMARK  161  A    between atoms: _386  and  _389
REMARK  162  A    between atoms: _389  and  _390
REMARK  163  A    between atoms: _393  and  _395
REMARK  164  A    between atoms: _395  and  _396
REMARK  165  A    between atoms: _395  and  _398
REMARK  166  A    between atoms: _401  and  _403
REMARK  167  A    between atoms: _403  and  _404
REMARK  168  A    between atoms: _403  and  _406
REMARK  169  A    between atoms: _406  and  _407
REMARK  170  A    between atoms: _407  and  _408
REMARK  171  A    between atoms: _408  and  _409
REMARK  172  A    between atoms: _409  and  _410
REMARK  173  A    between atoms: _414  and  _416
REMARK  174  A    between atoms: _416  and  _417
REMARK  175  A    between atoms: _416  and  _419
REMARK  176  A    between atoms: _419  and  _420
REMARK  177  A    between atoms: _420  and  _421
REMARK  178  A    between atoms: _423  and  _425
REMARK  179  A    between atoms: _425  and  _426
REMARK  180  A    between atoms: _425  and  _428
REMARK  181  A    between atoms: _428  and  _429
REMARK  182  A    between atoms: _432  and  _434
REMARK  183  A    between atoms: _434  and  _435
REMARK  184  A    between atoms: _437  and  _439
REMARK  185  A    between atoms: _439  and  _440
REMARK  186  A    between atoms: _442  and  _444
REMARK  187  A    between atoms: _444  and  _445
REMARK  188  A    between atoms: _444  and  _447
REMARK  189  A    between atoms: _447  and  _448
REMARK  190  A    between atoms: _451  and  _453
REMARK  191  A    between atoms: _453  and  _454
REMARK  192  A    between atoms: _456  and  _458
REMARK  193  A    between atoms: _458  and  _459
REMARK  194  A    between atoms: _461  and  _463
REMARK  195  A    between atoms: _463  and  _464
REMARK  196  A    between atoms: _463  and  _466
REMARK  197  A    between atoms: _466  and  _467
REMARK  198  A    between atoms: _473  and  _475
REMARK  199  A    between atoms: _475  and  _476
REMARK  200  A    between atoms: _475  and  _478
REMARK  201  A    between atoms: _478  and  _479
REMARK  202  A    between atoms: _482  and  _484
REMARK  203  A    between atoms: _484  and  _485
REMARK  204  A    between atoms: _484  and  _487
REMARK  205  A    between atoms: _490  and  _492
REMARK  206  A    between atoms: _492  and  _493
REMARK  207  A    between atoms: _492  and  _495
REMARK  208  A    between atoms: _495  and  _496
REMARK  209  A    between atoms: _499  and  _501
REMARK  210  A    between atoms: _501  and  _502
REMARK  211  A    between atoms: _501  and  _504
REMARK  212  A    between atoms: _504  and  _505
REMARK  213  A    between atoms: _509  and  _510
REMARK  214  A    between atoms: _515  and  _517
REMARK  215  A    between atoms: _517  and  _518
REMARK  216  A    between atoms: _517  and  _520
REMARK  217  A    between atoms: _520  and  _521
REMARK  218  A    between atoms: _524  and  _526
REMARK  219  A    between atoms: _526  and  _527
REMARK  220  A    between atoms: _526  and  _529
REMARK  221  A    between atoms: _529  and  _530
REMARK  222  A    between atoms: _535  and  _537
REMARK  223  A    between atoms: _537  and  _538
REMARK  224  A    between atoms: _537  and  _540
REMARK  225  A    between atoms: _543  and  _545
REMARK  226  A    between atoms: _545  and  _546
REMARK  227  A    between atoms: _545  and  _548
REMARK  228  A    between atoms: _548  and  _549
REMARK  229  A    between atoms: _552  and  _554
REMARK  230  A    between atoms: _554  and  _555
REMARK  231  A    between atoms: _557  and  _559
REMARK  232  A    between atoms: _559  and  _560
REMARK  233  A    between atoms: _559  and  _562
REMARK  234  A    between atoms: _562  and  _563
REMARK  235  A    between atoms: _563  and  _564
REMARK  236  A    between atoms: _564  and  _565
REMARK  237  A    between atoms: _574  and  _576
REMARK  238  A    between atoms: _576  and  _577
REMARK  239  A    between atoms: _576  and  _579
REMARK  240  A    between atoms: _579  and  _580
REMARK                            x       y       z     vdW  Elec       q    Type
REMARK                         _______ _______ _______ _____ _____    ______ ____
ROOT
ATOM      1  C   ALA A   6      10.959  30.279   5.640  0.00  0.00    +0.241 C 
ATOM      2  O   ALA A   6      11.545  31.361   5.662  0.00  0.00    -0.273 OA
ATOM      3  N   ASP A   7       9.633  30.163   5.662  0.00  0.00    -0.297 N 
ATOM      4  H   ASP A   7       9.213  29.212   5.622  0.00  0.00    +0.150 HD
ENDROOT
BRANCH   1   5
ATOM      5  CA  ALA A   6      11.744  28.973   5.582  0.00  0.00    +0.149 C 
ATOM      6  CB  ALA A   6      12.543  28.791   6.873  0.00  0.00    +0.031 C 
BRANCH   5   8
ATOM      7  C   GLY A   5      12.343  28.227   3.342  0.00  0.00    +0.243 C 
ATOM      8  N   ALA A   6      12.644  28.921   4.436  0.00  0.00    -0.297 N 
ATOM      9  H   ALA A   6      13.544  29.440   4.475  0.00  0.00    +0.150 HD
ATOM     10  O   GLY A   5      11.290  27.605   3.215  0.00  0.00    -0.273 OA
BRANCH   7  11
ATOM     11  CA  GLY A   5      13.370  28.248   2.230  0.00  0.00    +0.176 C 
BRANCH  11  13
ATOM     12  C   THR A   4      14.550  30.355   2.234  0.00  0.00    +0.243 C 
ATOM     13  N   GLY A   5      14.521  29.068   2.561  0.00  0.00    -0.295 N 
ATOM     14  H   GLY A   5      15.330  28.644   3.059  0.00  0.00    +0.150 HD
ATOM     15  O   THR A   4      13.630  30.917   1.641  0.00  0.00    -0.273 OA
BRANCH  12  16
ATOM     16  CA  THR A   4      15.805  31.132   2.625  0.00  0.00    +0.176 C 
BRANCH  16  19
ATOM     17  C   ASP A   3      16.169  30.189   4.841  0.00  0.00    +0.241 C 
ATOM     18  O   ASP A   3      15.061  30.551   5.225  0.00  0.00    -0.273 OA
ATOM     19  N   THR A   4      16.613  30.406   3.604  0.00  0.00    -0.295 N 
ATOM     20  H   THR A   4      17.552  30.053   3.329  0.00  0.00    +0.150 HD
BRANCH  17  21
ATOM     21  CA  ASP A   3      17.092  29.416   5.776  0.00  0.00    +0.160 C 
BRANCH  21  23
ATOM     22  C   LEU A   2      19.233  30.215   6.632  0.00  0.00    +0.241 C 
ATOM     23  N   ASP A   3      17.903  30.223   6.680  0.00  0.00    -0.297 N 
ATOM     24  H   ASP A   3      17.428  30.823   7.384  0.00  0.00    +0.150 HD
ATOM     25  O   LEU A   2      19.869  29.594   5.779  0.00  0.00    -0.273 OA
BRANCH  22  26
ATOM     26  CA  LEU A   2      19.953  31.038   7.698  0.00  0.00    +0.149 C 
BRANCH  26  29
ATOM     27  C   LEU A   1      19.811  29.349   9.454  0.00  0.00    +0.238 C 
ATOM     28  O   LEU A   1      18.592  29.492   9.560  0.00  0.00    -0.274 OA
ATOM     29  N   LEU A   2      20.553  30.055   8.601  0.00  0.00    -0.297 N 
ATOM     30  H   LEU A   2      21.582  29.904   8.577  0.00  0.00    +0.150 HD
BRANCH  27  31
ATOM     31  CA  LEU A   1      20.544  28.325  10.316  0.00  0.00    +0.145 C 
BRANCH  31  32
ATOM     32  N   LEU A   1      20.303  28.495  11.741  0.00  0.00    -0.238 NA
ATOM     33  H   LEU A   1      19.407  28.151  12.141  0.00  0.00    +0.142 HD
ENDBRANCH  31  32
BRANCH  31  34
ATOM     34  CB  LEU A   1      20.108  26.917   9.913  0.00  0.00    +0.026 C 
BRANCH  34  35
ATOM     35  CG  LEU A   1      20.252  26.453   8.467  0.00  0.00    +0.002 C 
ATOM     36  CD2 LEU A   1      19.527  25.122   8.313  0.00  0.00    +0.000 C 
ATOM     37  CD1 LEU A   1      21.724  26.306   8.107  0.00  0.00    +0.000 C 
ENDBRANCH  34  35
ENDBRANCH  31  34
ENDBRANCH  27  31
ENDBRANCH  26  29
BRANCH  26  38
ATOM     38  CB  LEU A   2      21.040  31.916   7.065  0.00  0.00    +0.029 C 
BRANCH  38  39
ATOM     39  CG  LEU A   2      21.915  32.685   8.067  0.00  0.00    +0.002 C 
ATOM     40  CD2 LEU A   2      21.036  33.570   8.935  0.00  0.00    +0.000 C 
ATOM     41  CD1 LEU A   2      22.957  33.523   7.325  0.00  0.00    +0.000 C 
ENDBRANCH  38  39
ENDBRANCH  26  38
ENDBRANCH  22  26
ENDBRANCH  21  23
BRANCH  21  42
ATOM     42  CB  ASP A   3      16.247  28.451   6.611  0.00  0.00    +0.143 C 
BRANCH  42  43
ATOM     43  CG  ASP A   3      15.798  27.237   5.829  0.00  0.00    +0.367 C 
ATOM     44  OD2 ASP A   3      15.651  26.162   6.447  0.00  0.00    -0.246 OA
ATOM     45  OD1 ASP A   3      15.582  27.356   4.607  0.00  0.00    -0.246 OA
ENDBRANCH  42  43
ENDBRANCH  21  42
ENDBRANCH  17  21
ENDBRANCH  16  19
BRANCH  16  46
ATOM     46  CB  THR A   4      16.603  31.420   1.339  0.00  0.00    +0.137 C 
ATOM     47  CG2 THR A   4      17.843  32.231   1.653  0.00  0.00    +0.034 C 
BRANCH  46  48
ATOM     48  OG1 THR A   4      16.982  30.185   0.725  0.00  0.00    -0.382 OA
ATOM     49  HG1 THR A   4      16.169  29.667   0.500  0.00  0.00    +0.210 HD
ENDBRANCH  46  48
ENDBRANCH  16  46
ENDBRANCH  12  16
ENDBRANCH  11  13
ENDBRANCH   7  11
ENDBRANCH   5   8
ENDBRANCH   1   5
BRANCH   3  50
ATOM     50  CA  ASP A   7       8.744  31.323   5.740  0.00  0.00    +0.160 C 
BRANCH  50  51
ATOM     51  C   ASP A   7       8.897  32.019   7.086  0.00  0.00    +0.241 C 
ATOM     52  N   ASP A   8       9.004  31.218   8.142  0.00  0.00    -0.297 N 
ATOM     53  H   ASP A   8       8.999  30.188   7.996  0.00  0.00    +0.150 HD
ATOM     54  O   ASP A   7       8.913  33.250   7.165  0.00  0.00    -0.273 OA
BRANCH  52  55
ATOM     55  CA  ASP A   8       9.128  31.740   9.498  0.00  0.00    +0.160 C 
BRANCH  55  56
ATOM     56  C   ASP A   8      10.431  31.328  10.162  0.00  0.00    +0.241 C 
ATOM     57  N   THR A   9      10.615  31.832  11.375  0.00  0.00    -0.295 N 
ATOM     58  H   THR A   9       9.888  32.467  11.763  0.00  0.00    +0.150 HD
ATOM     59  O   ASP A   8      11.231  30.578   9.604  0.00  0.00    -0.273 OA
BRANCH  57  60
ATOM     60  CA  THR A   9      11.781  31.540  12.186  0.00  0.00    +0.176 C 
BRANCH  60  61
ATOM     61  C   THR A   9      11.266  30.669  13.322  0.00  0.00    +0.243 C 
ATOM     62  O   THR A   9      10.322  31.043  14.019  0.00  0.00    -0.273 OA
ATOM     63  N   VAL A  10      11.859  29.496  13.489  0.00  0.00    -0.297 N 
ATOM     64  H   VAL A  10      12.635  29.214  12.857  0.00  0.00    +0.150 HD
BRANCH  63  65
ATOM     65  CA  VAL A  10      11.429  28.602  14.552  0.00  0.00    +0.149 C 
BRANCH  65  66
ATOM     66  C   VAL A  10      12.643  28.084  15.298  0.00  0.00    +0.241 C 
ATOM     67  N   LEU A  11      12.591  28.218  16.616  0.00  0.00    -0.298 N 
ATOM     68  H   LEU A  11      11.744  28.642  17.046  0.00  0.00    +0.150 HD
ATOM     69  O   VAL A  10      13.599  27.581  14.700  0.00  0.00    -0.273 OA
BRANCH  67  70
ATOM     70  CA  LEU A  11      13.681  27.790  17.480  0.00  0.00    +0.137 C 
BRANCH  70  71
ATOM     71  C   LEU A  11      13.246  26.657  18.397  0.00  0.00    +0.227 C 
ATOM     72  O   LEU A  11      12.060  26.494  18.676  0.00  0.00    -0.286 OA
ENDBRANCH  70  71
BRANCH  70  73
ATOM     73  CB  LEU A  11      14.147  28.963  18.341  0.00  0.00    +0.028 C 
BRANCH  73  74
ATOM     74  CG  LEU A  11      14.540  30.259  17.639  0.00  0.00    +0.002 C 
ATOM     75  CD2 LEU A  11      14.879  31.297  18.696  0.00  0.00    +0.000 C 
ATOM     76  CD1 LEU A  11      15.726  30.012  16.712  0.00  0.00    +0.000 C 
ENDBRANCH  73  74
ENDBRANCH  70  73
ENDBRANCH  67  70
ENDBRANCH  65  66
BRANCH  65  77
ATOM     77  CB  VAL A  10      10.613  27.412  14.005  0.00  0.00    +0.027 C 
ATOM     78  CG2 VAL A  10      10.104  26.558  15.156  0.00  0.00    +0.002 C 
ATOM     79  CG1 VAL A  10      11.467  26.578  13.065  0.00  0.00    +0.002 C 
ENDBRANCH  65  77
ENDBRANCH  63  65
ENDBRANCH  60  61
BRANCH  60  80
ATOM     80  CB  THR A   9      12.389  32.838  12.770  0.00  0.00    +0.137 C 
ATOM     81  CG2 THR A   9      13.488  32.516  13.780  0.00  0.00    +0.034 C 
BRANCH  80  82
ATOM     82  OG1 THR A   9      12.944  33.626  11.706  0.00  0.00    -0.382 OA
ATOM     83  HG1 THR A   9      12.230  33.856  11.060  0.00  0.00    +0.210 HD
ENDBRANCH  80  82
ENDBRANCH  60  80
ENDBRANCH  57  60
ENDBRANCH  55  56
BRANCH  55  84
ATOM     84  CB  ASP A   8       7.976  31.232  10.371  0.00  0.00    +0.143 C 
BRANCH  84  85
ATOM     85  CG  ASP A   8       6.644  31.267   9.658  0.00  0.00    +0.367 C 
ATOM     86  OD2 ASP A   8       5.953  30.224   9.635  0.00  0.00    -0.246 OA
ATOM     87  OD1 ASP A   8       6.282  32.336   9.128  0.00  0.00    -0.246 OA
ENDBRANCH  84  85
ENDBRANCH  55  84
ENDBRANCH  52  55
ENDBRANCH  50  51
BRANCH  50  88
ATOM     88  CB  ASP A   7       7.279  30.895   5.591  0.00  0.00    +0.143 C 
BRANCH  88  89
ATOM     89  CG  ASP A   7       6.862  30.691   4.146  0.00  0.00    +0.367 C 
ATOM     90  OD2 ASP A   7       5.662  30.430   3.919  0.00  0.00    -0.246 OA
ATOM     91  OD1 ASP A   7       7.716  30.790   3.240  0.00  0.00    -0.246 OA
ENDBRANCH  88  89
ENDBRANCH  50  88
ENDBRANCH   3  50
TORSDOF 39
REMARK  Name = ../refined-set-2016/2wl0/2wl0_pocket.pdb
REMARK  240 active torsions:
REMARK  status: ('A' for Active; 'I' for Inactive)
REMARK    1  A    between atoms: _1  and  _3
REMARK    2  A    between atoms: _3  and  _4
REMARK    3  A    between atoms: _3  and  _6
REMARK    4  A    between atoms: _6  and  _7
REMARK    5  A    between atoms: _7  and  _8
REMARK    6  A    between atoms: _8  and  _9
REMARK    7  A    between atoms: _18  and  _20
REMARK    8  A    between atoms: _20  and  _21
REMARK    9  A    between atoms: _20  and  _23
REMARK   10  A    between atoms: _23  and  _24
REMARK   11  A    between atoms: _27  and  _29
REMARK   12  A    between atoms: _29  and  _30
REMARK   13  A    between atoms: _29  and  _32
REMARK   14  A    between atoms: _32  and  _33
REMARK   15  A    between atoms: _36  and  _38
REMARK   16  A    between atoms: _38  and  _39
REMARK   17  A    between atoms: _38  and  _41
REMARK   18  A    between atoms: _41  and  _42
REMARK   19  A    between atoms: _45  and  _47
REMARK   20  A    between atoms: _47  and  _48
REMARK   21  A    between atoms: _47  and  _50
REMARK   22  A    between atoms: _50  and  _51
REMARK   23  A    between atoms: _54  and  _56
REMARK   24  A    between atoms: _56  and  _57
REMARK   25  A    between atoms: _59  and  _61
REMARK   26  A    between atoms: _61  and  _62
REMARK   27  A    between atoms: _65  and  _67
REMARK   28  A    between atoms: _67  and  _68
REMARK   29  A    between atoms: _67  and  _70
REMARK   30  A    between atoms: _70  and  _71
REMARK   31  A    between atoms: _74  and  _76
REMARK   32  A    between atoms: _76  and  _77
REMARK   33  A    between atoms: _76  and  _79
REMARK   34  A    between atoms: _79  and  _80
REMARK   35  A    between atoms: _83  and  _85
REMARK   36  A    between atoms: _85  and  _86
REMARK   37  A    between atoms: _85  and  _88
REMARK   38  A    between atoms: _88  and  _89
REMARK   39  A    between atoms: _92  and  _94
REMARK   40  A    between atoms: _94  and  _95
REMARK   41  A    between atoms: _94  and  _97
REMARK   42  A    between atoms: _100  and  _102
REMARK   43  A    between atoms: _102  and  _103
REMARK   44  A    between atoms: _102  and  _105
REMARK   45  A    between atoms: _105  and  _106
REMARK   46  A    between atoms: _109  and  _111
REMARK   47  A    between atoms: _111  and  _112
REMARK   48  A    between atoms: _111  and  _114
REMARK   49  A    between atoms: _114  and  _115
REMARK   50  A    between atoms: _115  and  _116
REMARK   51  A    between atoms: _116  and  _117
REMARK   52  A    between atoms: _117  and  _118
REMARK   53  A    between atoms: _122  and  _124
REMARK   54  A    between atoms: _124  and  _125
REMARK   55  A    between atoms: _124  and  _127
REMARK   56  A    between atoms: _127  and  _128
REMARK   57  A    between atoms: _128  and  _129
REMARK   58  A    between atoms: _131  and  _133
REMARK   59  A    between atoms: _133  and  _134
REMARK   60  A    between atoms: _133  and  _136
REMARK   61  A    between atoms: _136  and  _137
REMARK   62  A    between atoms: _140  and  _142
REMARK   63  A    between atoms: _142  and  _143
REMARK   64  A    between atoms: _145  and  _147
REMARK   65  A    between atoms: _147  and  _148
REMARK   66  A    between atoms: _150  and  _152
REMARK   67  A    between atoms: _152  and  _153
REMARK   68  A    between atoms: _152  and  _155
REMARK   69  A    between atoms: _155  and  _156
REMARK   70  A    between atoms: _159  and  _161
REMARK   71  A    between atoms: _161  and  _162
REMARK   72  A    between atoms: _164  and  _166
REMARK   73  A    between atoms: _166  and  _167
REMARK   74  A    between atoms: _169  and  _171
REMARK   75  A    between atoms: _171  and  _172
REMARK   76  A    between atoms: _171  and  _174
REMARK   77  A    between atoms: _174  and  _175
REMARK   78  A    between atoms: _181  and  _183
REMARK   79  A    between atoms: _183  and  _184
REMARK   80  A    between atoms: _183  and  _186
REMARK   81  A    between atoms: _186  and  _187
REMARK   82  A    between atoms: _190  and  _192
REMARK   83  A    between atoms: _192  and  _193
REMARK   84  A    between atoms: _192  and  _195
REMARK   85  A    between atoms: _198  and  _200
REMARK   86  A    between atoms: _200  and  _201
REMARK   87  A    between atoms: _200  and  _203
REMARK   88  A    between atoms: _203  and  _204
REMARK   89  A    between atoms: _207  and  _209
REMARK   90  A    between atoms: _209  and  _210
REMARK   91  A    between atoms: _209  and  _212
REMARK   92  A    between atoms: _212  and  _213
REMARK   93  A    between atoms: _217  and  _218
REMARK   94  A    between atoms: _223  and  _225
REMARK   95  A    between atoms: _225  and  _226
REMARK   96  A    between atoms: _225  and  _228
REMARK   97  A    between atoms: _228  and  _229
REMARK   98  A    between atoms: _232  and  _234
REMARK   99  A    between atoms: _234  and  _235
REMARK  100  A    between atoms: _234  and  _237
REMARK  101  A    between atoms: _237  and  _238
REMARK  102  A    between atoms: _243  and  _245
REMARK  103  A    between atoms: _245  and  _246
REMARK  104  A    between atoms: _245  and  _248
REMARK  105  A    between atoms: _251  and  _253
REMARK  106  A    between atoms: _253  and  _254
REMARK  107  A    between atoms: _253  and  _256
REMARK  108  A    between atoms: _256  and  _257
REMARK  109  A    between atoms: _260  and  _262
REMARK  110  A    between atoms: _262  and  _263
REMARK  111  A    between atoms: _265  and  _267
REMARK  112  A    between atoms: _267  and  _268
REMARK  113  A    between atoms: _267  and  _270
REMARK  114  A    between atoms: _270  and  _271
REMARK  115  A    between atoms: _271  and  _272
REMARK  116  A    between atoms: _272  and  _273
REMARK  117  A    between atoms: _282  and  _284
REMARK  118  A    between atoms: _284  and  _285
REMARK  119  A    between atoms: _284  and  _287
REMARK  120  A    between atoms: _287  and  _288
REMARK  121  A    between atoms: _293  and  _295
REMARK  122  A    between atoms: _295  and  _296
REMARK  123  A    between atoms: _295  and  _298
REMARK  124  A    between atoms: _298  and  _299
REMARK  125  A    between atoms: _299  and  _300
REMARK  126  A    between atoms: _300  and  _301
REMARK  127  A    between atoms: _310  and  _312
REMARK  128  A    between atoms: _312  and  _313
REMARK  129  A    between atoms: _312  and  _315
REMARK  130  A    between atoms: _315  and  _316
REMARK  131  A    between atoms: _319  and  _321
REMARK  132  A    between atoms: _321  and  _322
REMARK  133  A    between atoms: _321  and  _324
REMARK  134  A    between atoms: _324  and  _325
REMARK  135  A    between atoms: _328  and  _330
REMARK  136  A    between atoms: _330  and  _331
REMARK  137  A    between atoms: _330  and  _333
REMARK  138  A    between atoms: _333  and  _334
REMARK  139  A    between atoms: _337  and  _339
REMARK  140  A    between atoms: _339  and  _340
REMARK  141  A    between atoms: _339  and  _342
REMARK  142  A    between atoms: _342  and  _343
REMARK  143  A    between atoms: _346  and  _348
REMARK  144  A    between atoms: _348  and  _349
REMARK  145  A    between atoms: _348  and  _351
REMARK  146  A    between atoms: _351  and  _352
REMARK  147  A    between atoms: _355  and  _357
REMARK  148  A    between atoms: _357  and  _358
REMARK  149  A    between atoms: _360  and  _362
REMARK  150  A    between atoms: _362  and  _363
REMARK  151  A    between atoms: _366  and  _368
REMARK  152  A    between atoms: _368  and  _369
REMARK  153  A    between atoms: _368  and  _371
REMARK  154  A    between atoms: _371  and  _372
REMARK  155  A    between atoms: _375  and  _377
REMARK  156  A    between atoms: _377  and  _378
REMARK  157  A    between atoms: _377  and  _380
REMARK  158  A    between atoms: _380  and  _381
REMARK  159  A    between atoms: _384  and  _386
REMARK  160  A    between atoms: _386  and  _387
REMARK  161  A    between atoms: _386  and  _389
REMARK  162  A    between atoms: _389  and  _390
REMARK  163  A    between atoms: _393  and  _395
REMARK  164  A    between atoms: _395  and  _396
REMARK  165  A    between atoms: _395  and  _398
REMARK  166  A    between atoms: _401  and  _403
REMARK  167  A    between atoms: _403  and  _404
REMARK  168  A    between atoms: _403  and  _406
REMARK  169  A    between atoms: _406  and  _407
REMARK  170  A    between atoms: _407  and  _408
REMARK  171  A    between atoms: _408  and  _409
REMARK  172  A    between atoms: _409  and  _410
REMARK  173  A    between atoms: _414  and  _416
REMARK  174  A    between atoms: _416  and  _417
REMARK  175  A    between atoms: _416  and  _419
REMARK  176  A    between atoms: _419  and  _420
REMARK  177  A    between atoms: _420  and  _421
REMARK  178  A    between atoms: _423  and  _425
REMARK  179  A    between atoms: _425  and  _426
REMARK  180  A    between atoms: _425  and  _428
REMARK  181  A    between atoms: _428  and  _429
REMARK  182  A    between atoms: _432  and  _434
REMARK  183  A    between atoms: _434  and  _435
REMARK  184  A    between atoms: _437  and  _439
REMARK  185  A    between atoms: _439  and  _440
REMARK  186  A    between atoms: _442  and  _444
REMARK  187  A    between atoms: _444  and  _445
REMARK  188  A    between atoms: _444  and  _447
REMARK  189  A    between atoms: _447  and  _448
REMARK  190  A    between atoms: _451  and  _453
REMARK  191  A    between atoms: _453  and  _454
REMARK  192  A    between atoms: _456  and  _458
REMARK  193  A    between atoms: _458  and  _459
REMARK  194  A    between atoms: _461  and  _463
REMARK  195  A    between atoms: _463  and  _464
REMARK  196  A    between atoms: _463  and  _466
REMARK  197  A    between atoms: _466  and  _467
REMARK  198  A    between atoms: _473  and  _475
REMARK  199  A    between atoms: _475  and  _476
REMARK  200  A    between atoms: _475  and  _478
REMARK  201  A    between atoms: _478  and  _479
REMARK  202  A    between atoms: _482  and  _484
REMARK  203  A    between atoms: _484  and  _485
REMARK  204  A    between atoms: _484  and  _487
REMARK  205  A    between atoms: _490  and  _492
REMARK  206  A    between atoms: _492  and  _493
REMARK  207  A    between atoms: _492  and  _495
REMARK  208  A    between atoms: _495  and  _496
REMARK  209  A    between atoms: _499  and  _501
REMARK  210  A    between atoms: _501  and  _502
REMARK  211  A    between atoms: _501  and  _504
REMARK  212  A    between atoms: _504  and  _505
REMARK  213  A    between atoms: _509  and  _510
REMARK  214  A    between atoms: _515  and  _517
REMARK  215  A    between atoms: _517  and  _518
REMARK  216  A    between atoms: _517  and  _520
REMARK  217  A    between atoms: _520  and  _521
REMARK  218  A    between atoms: _524  and  _526
REMARK  219  A    between atoms: _526  and  _527
REMARK  220  A    between atoms: _526  and  _529
REMARK  221  A    between atoms: _529  and  _530
REMARK  222  A    between atoms: _535  and  _537
REMARK  223  A    between atoms: _537  and  _538
REMARK  224  A    between atoms: _537  and  _540
REMARK  225  A    between atoms: _543  and  _545
REMARK  226  A    between atoms: _545  and  _546
REMARK  227  A    between atoms: _545  and  _548
REMARK  228  A    between atoms: _548  and  _549
REMARK  229  A    between atoms: _552  and  _554
REMARK  230  A    between atoms: _554  and  _555
REMARK  231  A    between atoms: _557  and  _559
REMARK  232  A    between atoms: _559  and  _560
REMARK  233  A    between atoms: _559  and  _562
REMARK  234  A    between atoms: _562  and  _563
REMARK  235  A    between atoms: _563  and  _564
REMARK  236  A    between atoms: _564  and  _565
REMARK  237  A    between atoms: _574  and  _576
REMARK  238  A    between atoms: _576  and  _577
REMARK  239  A    between atoms: _576  and  _579
REMARK  240  A    between atoms: _579  and  _580
REMARK                            x       y       z     vdW  Elec       q    Type
REMARK                         _______ _______ _______ _____ _____    ______ ____
ROOT
ATOM      1  C   GLY A   5       8.230  19.704   5.785  0.00  0.00    +0.243 C 
ATOM      2  O   GLY A   5       7.256  18.957   5.729  0.00  0.00    -0.273 OA
ATOM      3  N   ILE A   6       9.437  19.325   5.388  0.00  0.00    -0.297 N 
ATOM      4  H   ILE A   6      10.231  19.996   5.412  0.00  0.00    +0.150 HD
ENDROOT
BRANCH   3   5
ATOM      5  CA  ILE A   6       9.641  17.966   4.920  0.00  0.00    +0.149 C 
BRANCH   5   6
ATOM      6  C   ILE A   6       9.325  17.088   6.127  0.00  0.00    +0.241 C 
ATOM      7  O   ILE A   6       9.935  17.241   7.185  0.00  0.00    -0.273 OA
ATOM      8  N   GLY A   7       8.356  16.193   5.982  0.00  0.00    -0.295 N 
ATOM      9  H   GLY A   7       7.846  16.118   5.078  0.00  0.00    +0.150 HD
BRANCH   8  10
ATOM     10  CA  GLY A   7       8.008  15.316   7.090  0.00  0.00    +0.176 C 
BRANCH  10  11
ATOM     11  C   GLY A   7       6.645  15.564   7.709  0.00  0.00    +0.243 C 
ATOM     12  O   GLY A   7       6.126  14.716   8.434  0.00  0.00    -0.273 OA
ATOM     13  N   GLY A   8       6.056  16.721   7.433  0.00  0.00    -0.295 N 
ATOM     14  H   GLY A   8       6.527  17.416   6.820  0.00  0.00    +0.150 HD
BRANCH  13  15
ATOM     15  CA  GLY A   8       4.750  17.007   7.994  0.00  0.00    +0.176 C 
BRANCH  15  16
ATOM     16  C   GLY A   8       4.746  18.251   8.854  0.00  0.00    +0.243 C 
ATOM     17  N   PHE A   9       3.735  18.373   9.709  0.00  0.00    -0.297 N 
ATOM     18  H   PHE A   9       3.021  17.619   9.763  0.00  0.00    +0.150 HD
ATOM     19  O   GLY A   8       5.651  19.083   8.755  0.00  0.00    -0.273 OA
BRANCH  17  20
ATOM     20  CA  PHE A   9       3.604  19.541  10.574  0.00  0.00    +0.153 C 
BRANCH  20  21
ATOM     21  C   PHE A   9       3.933  19.294  12.041  0.00  0.00    +0.241 C 
ATOM     22  N   ILE A  10       4.340  20.362  12.722  0.00  0.00    -0.298 N 
ATOM     23  H   ILE A  10       4.461  21.263  12.216  0.00  0.00    +0.150 HD
ATOM     24  O   PHE A   9       3.824  18.172  12.541  0.00  0.00    -0.273 OA
BRANCH  22  25
ATOM     25  CA  ILE A  10       4.622  20.316  14.151  0.00  0.00    +0.137 C 
BRANCH  25  26
ATOM     26  C   ILE A  10       3.889  21.511  14.750  0.00  0.00    +0.227 C 
ATOM     27  O   ILE A  10       3.595  22.482  14.045  0.00  0.00    -0.286 OA
ENDBRANCH  25  26
BRANCH  25  28
ATOM     28  CB  ILE A  10       6.136  20.436  14.488  0.00  0.00    +0.026 C 
ATOM     29  CG2 ILE A  10       6.861  19.169  14.067  0.00  0.00    +0.002 C 
BRANCH  28  30
ATOM     30  CG1 ILE A  10       6.735  21.690  13.840  0.00  0.00    +0.002 C 
ATOM     31  CD1 ILE A  10       8.140  22.037  14.344  0.00  0.00    +0.000 C 
ENDBRANCH  28  30
ENDBRANCH  25  28
ENDBRANCH  22  25
ENDBRANCH  20  21
BRANCH  20  32
ATOM     32  CB  PHE A   9       2.173  20.091  10.513  0.00  0.00    +0.055 C 
BRANCH  32  33
ATOM     33  CG  PHE A   9       1.741  20.544   9.147  0.00  0.00    -0.020 A 
ATOM     34  CD2 PHE A   9       1.582  21.898   8.875  0.00  0.00    -0.004 A 
ATOM     35  CE2 PHE A   9       1.139  22.331   7.626  0.00  0.00    -0.000 A 
ATOM     36  CZ  PHE A   9       0.851  21.397   6.631  0.00  0.00    -0.000 A 
ATOM     37  CE1 PHE A   9       1.009  20.036   6.893  0.00  0.00    -0.000 A 
ATOM     38  CD1 PHE A   9       1.452  19.618   8.145  0.00  0.00    -0.004 A 
ENDBRANCH  32  33
ENDBRANCH  20  32
ENDBRANCH  17  20
ENDBRANCH  15  16
ENDBRANCH  13  15
ENDBRANCH  10  11
ENDBRANCH   8  10
ENDBRANCH   5   6
BRANCH   5  39
ATOM     39  CB  ILE A   6      11.101  17.733   4.508  0.00  0.00    +0.027 C 
ATOM     40  CG2 ILE A   6      11.250  16.346   3.896  0.00  0.00    +0.002 C 
BRANCH  39  41
ATOM     41  CG1 ILE A   6      11.553  18.839   3.547  0.00  0.00    +0.002 C 
ATOM     42  CD1 ILE A   6      10.776  18.921   2.256  0.00  0.00    +0.000 C 
ENDBRANCH  39  41
ENDBRANCH   5  39
ENDBRANCH   3   5
BRANCH   1  43
ATOM     43  CA  GLY A   5       8.080  21.121   6.295  0.00  0.00    +0.176 C 
BRANCH  43  45
ATOM     44  C   GLY A   4       6.163  22.356   7.109  0.00  0.00    +0.243 C 
ATOM     45  N   GLY A   5       6.836  21.214   7.034  0.00  0.00    -0.295 N 
ATOM     46  H   GLY A   5       6.464  20.370   7.514  0.00  0.00    +0.150 HD
ATOM     47  O   GLY A   4       6.543  23.401   6.584  0.00  0.00    -0.273 OA
BRANCH  44  48
ATOM     48  CA  GLY A   4       4.874  22.295   7.899  0.00  0.00    +0.176 C 
BRANCH  48  51
ATOM     49  C   ILE A   3       4.383  23.508   9.923  0.00  0.00    +0.241 C 
ATOM     50  O   ILE A   3       4.586  22.511  10.614  0.00  0.00    -0.273 OA
ATOM     51  N   GLY A   4       4.507  23.511   8.599  0.00  0.00    -0.295 N 
ATOM     52  H   GLY A   4       4.340  24.387   8.064  0.00  0.00    +0.150 HD
BRANCH  49  53
ATOM     53  CA  ILE A   3       3.958  24.819  10.560  0.00  0.00    +0.149 C 
BRANCH  53  55
ATOM     54  C   MET A   2       1.818  24.909  11.700  0.00  0.00    +0.241 C 
ATOM     55  N   ILE A   3       3.086  24.515  11.688  0.00  0.00    -0.297 N 
ATOM     56  H   ILE A   3       3.463  23.981  12.497  0.00  0.00    +0.150 HD
ATOM     57  O   MET A   2       1.316  25.571  10.792  0.00  0.00    -0.273 OA
BRANCH  54  58
ATOM     58  CA  MET A   2       0.993  24.523  12.915  0.00  0.00    +0.149 C 
BRANCH  58  61
ATOM     59  C   LYS A   1       0.982  26.203  14.678  0.00  0.00    +0.238 C 
ATOM     60  O   LYS A   1       1.811  25.590  15.352  0.00  0.00    -0.274 OA
ATOM     61  N   MET A   2       0.514  25.759  13.516  0.00  0.00    -0.297 N 
ATOM     62  H   MET A   2      -0.216  26.311  13.022  0.00  0.00    +0.150 HD
BRANCH  59  63
ATOM     63  CA  LYS A   1       0.418  27.527  15.162  0.00  0.00    +0.145 C 
BRANCH  63  64
ATOM     64  N   LYS A   1       0.337  27.517  16.611  0.00  0.00    -0.238 NA
ATOM     65  H   LYS A   1       0.983  26.902  17.145  0.00  0.00    +0.142 HD
ENDBRANCH  63  64
BRANCH  63  66
ATOM     66  CB  LYS A   1       1.326  28.660  14.673  0.00  0.00    +0.026 C 
BRANCH  66  67
ATOM     67  CG  LYS A   1       1.392  28.773  13.159  0.00  0.00    -0.000 C 
BRANCH  67  68
ATOM     68  CD  LYS A   1       2.375  29.841  12.709  0.00  0.00    -0.024 C 
BRANCH  68  69
ATOM     69  CE  LYS A   1       2.360  29.987  11.191  0.00  0.00    -0.086 C 
BRANCH  69  70
ATOM     70  NZ  LYS A   1       3.309  31.025  10.703  0.00  0.00    +0.380 N 
ATOM     71  HZ1 LYS A   1       3.055  31.946  11.114  0.00  0.00    -0.089 HD
ATOM     72  HZ2 LYS A   1       4.276  30.771  10.989  0.00  0.00    -0.089 HD
ATOM     73  HZ3 LYS A   1       3.256  31.081   9.666  0.00  0.00    -0.089 HD
ENDBRANCH  69  70
ENDBRANCH  68  69
ENDBRANCH  67  68
ENDBRANCH  66  67
ENDBRANCH  63  66
ENDBRANCH  59  63
ENDBRANCH  58  61
BRANCH  58  74
ATOM     74  CB  MET A   2      -0.179  23.639  12.469  0.00  0.00    +0.041 C 
BRANCH  74  75
ATOM     75  CG  MET A   2      -0.887  22.899  13.594  0.00  0.00    +0.060 C 
BRANCH  75  76
ATOM     76  SD  MET A   2       0.081  21.520  14.248  0.00  0.00    -0.139 S 
ATOM     77  CE  MET A   2      -0.526  20.169  13.239  0.00  0.00    +0.069 C 
ENDBRANCH  75  76
ENDBRANCH  74  75
ENDBRANCH  58  74
ENDBRANCH  54  58
ENDBRANCH  53  55
BRANCH  53  78
ATOM     78  CB  ILE A   3       5.213  25.626  10.990  0.00  0.00    +0.027 C 
ATOM     79  CG2 ILE A   3       4.788  26.977  11.566  0.00  0.00    +0.002 C 
BRANCH  78  80
ATOM     80  CG1 ILE A   3       6.040  24.830  12.003  0.00  0.00    +0.002 C 
ATOM     81  CD1 ILE A   3       5.375  24.659  13.340  0.00  0.00    +0.000 C 
ENDBRANCH  78  80
ENDBRANCH  53  78
ENDBRANCH  49  53
ENDBRANCH  48  51
ENDBRANCH  44  48
ENDBRANCH  43  45
ENDBRANCH   1  43
TORSDOF 36
REMARK  Name = ../refined-set-2016/2wl0/2wl0_pocket.pdb
REMARK  240 active torsions:
REMARK  status: ('A' for Active; 'I' for Inactive)
REMARK    1  A    between atoms: _1  and  _3
REMARK    2  A    between atoms: _3  and  _4
REMARK    3  A    between atoms: _3  and  _6
REMARK    4  A    between atoms: _6  and  _7
REMARK    5  A    between atoms: _7  and  _8
REMARK    6  A    between atoms: _8  and  _9
REMARK    7  A    between atoms: _18  and  _20
REMARK    8  A    between atoms: _20  and  _21
REMARK    9  A    between atoms: _20  and  _23
REMARK   10  A    between atoms: _23  and  _24
REMARK   11  A    between atoms: _27  and  _29
REMARK   12  A    between atoms: _29  and  _30
REMARK   13  A    between atoms: _29  and  _32
REMARK   14  A    between atoms: _32  and  _33
REMARK   15  A    between atoms: _36  and  _38
REMARK   16  A    between atoms: _38  and  _39
REMARK   17  A    between atoms: _38  and  _41
REMARK   18  A    between atoms: _41  and  _42
REMARK   19  A    between atoms: _45  and  _47
REMARK   20  A    between atoms: _47  and  _48
REMARK   21  A    between atoms: _47  and  _50
REMARK   22  A    between atoms: _50  and  _51
REMARK   23  A    between atoms: _54  and  _56
REMARK   24  A    between atoms: _56  and  _57
REMARK   25  A    between atoms: _59  and  _61
REMARK   26  A    between atoms: _61  and  _62
REMARK   27  A    between atoms: _65  and  _67
REMARK   28  A    between atoms: _67  and  _68
REMARK   29  A    between atoms: _67  and  _70
REMARK   30  A    between atoms: _70  and  _71
REMARK   31  A    between atoms: _74  and  _76
REMARK   32  A    between atoms: _76  and  _77
REMARK   33  A    between atoms: _76  and  _79
REMARK   34  A    between atoms: _79  and  _80
REMARK   35  A    between atoms: _83  and  _85
REMARK   36  A    between atoms: _85  and  _86
REMARK   37  A    between atoms: _85  and  _88
REMARK   38  A    between atoms: _88  and  _89
REMARK   39  A    between atoms: _92  and  _94
REMARK   40  A    between atoms: _94  and  _95
REMARK   41  A    between atoms: _94  and  _97
REMARK   42  A    between atoms: _100  and  _102
REMARK   43  A    between atoms: _102  and  _103
REMARK   44  A    between atoms: _102  and  _105
REMARK   45  A    between atoms: _105  and  _106
REMARK   46  A    between atoms: _109  and  _111
REMARK   47  A    between atoms: _111  and  _112
REMARK   48  A    between atoms: _111  and  _114
REMARK   49  A    between atoms: _114  and  _115
REMARK   50  A    between atoms: _115  and  _116
REMARK   51  A    between atoms: _116  and  _117
REMARK   52  A    between atoms: _117  and  _118
REMARK   53  A    between atoms: _122  and  _124
REMARK   54  A    between atoms: _124  and  _125
REMARK   55  A    between atoms: _124  and  _127
REMARK   56  A    between atoms: _127  and  _128
REMARK   57  A    between atoms: _128  and  _129
REMARK   58  A    between atoms: _131  and  _133
REMARK   59  A    between atoms: _133  and  _134
REMARK   60  A    between atoms: _133  and  _136
REMARK   61  A    between atoms: _136  and  _137
REMARK   62  A    between atoms: _140  and  _142
REMARK   63  A    between atoms: _142  and  _143
REMARK   64  A    between atoms: _145  and  _147
REMARK   65  A    between atoms: _147  and  _148
REMARK   66  A    between atoms: _150  and  _152
REMARK   67  A    between atoms: _152  and  _153
REMARK   68  A    between atoms: _152  and  _155
REMARK   69  A    between atoms: _155  and  _156
REMARK   70  A    between atoms: _159  and  _161
REMARK   71  A    between atoms: _161  and  _162
REMARK   72  A    between atoms: _164  and  _166
REMARK   73  A    between atoms: _166  and  _167
REMARK   74  A    between atoms: _169  and  _171
REMARK   75  A    between atoms: _171  and  _172
REMARK   76  A    between atoms: _171  and  _174
REMARK   77  A    between atoms: _174  and  _175
REMARK   78  A    between atoms: _181  and  _183
REMARK   79  A    between atoms: _183  and  _184
REMARK   80  A    between atoms: _183  and  _186
REMARK   81  A    between atoms: _186  and  _187
REMARK   82  A    between atoms: _190  and  _192
REMARK   83  A    between atoms: _192  and  _193
REMARK   84  A    between atoms: _192  and  _195
REMARK   85  A    between atoms: _198  and  _200
REMARK   86  A    between atoms: _200  and  _201
REMARK   87  A    between atoms: _200  and  _203
REMARK   88  A    between atoms: _203  and  _204
REMARK   89  A    between atoms: _207  and  _209
REMARK   90  A    between atoms: _209  and  _210
REMARK   91  A    between atoms: _209  and  _212
REMARK   92  A    between atoms: _212  and  _213
REMARK   93  A    between atoms: _217  and  _218
REMARK   94  A    between atoms: _223  and  _225
REMARK   95  A    between atoms: _225  and  _226
REMARK   96  A    between atoms: _225  and  _228
REMARK   97  A    between atoms: _228  and  _229
REMARK   98  A    between atoms: _232  and  _234
REMARK   99  A    between atoms: _234  and  _235
REMARK  100  A    between atoms: _234  and  _237
REMARK  101  A    between atoms: _237  and  _238
REMARK  102  A    between atoms: _243  and  _245
REMARK  103  A    between atoms: _245  and  _246
REMARK  104  A    between atoms: _245  and  _248
REMARK  105  A    between atoms: _251  and  _253
REMARK  106  A    between atoms: _253  and  _254
REMARK  107  A    between atoms: _253  and  _256
REMARK  108  A    between atoms: _256  and  _257
REMARK  109  A    between atoms: _260  and  _262
REMARK  110  A    between atoms: _262  and  _263
REMARK  111  A    between atoms: _265  and  _267
REMARK  112  A    between atoms: _267  and  _268
REMARK  113  A    between atoms: _267  and  _270
REMARK  114  A    between atoms: _270  and  _271
REMARK  115  A    between atoms: _271  and  _272
REMARK  116  A    between atoms: _272  and  _273
REMARK  117  A    between atoms: _282  and  _284
REMARK  118  A    between atoms: _284  and  _285
REMARK  119  A    between atoms: _284  and  _287
REMARK  120  A    between atoms: _287  and  _288
REMARK  121  A    between atoms: _293  and  _295
REMARK  122  A    between atoms: _295  and  _296
REMARK  123  A    between atoms: _295  and  _298
REMARK  124  A    between atoms: _298  and  _299
REMARK  125  A    between atoms: _299  and  _300
REMARK  126  A    between atoms: _300  and  _301
REMARK  127  A    between atoms: _310  and  _312
REMARK  128  A    between atoms: _312  and  _313
REMARK  129  A    between atoms: _312  and  _315
REMARK  130  A    between atoms: _315  and  _316
REMARK  131  A    between atoms: _319  and  _321
REMARK  132  A    between atoms: _321  and  _322
REMARK  133  A    between atoms: _321  and  _324
REMARK  134  A    between atoms: _324  and  _325
REMARK  135  A    between atoms: _328  and  _330
REMARK  136  A    between atoms: _330  and  _331
REMARK  137  A    between atoms: _330  and  _333
REMARK  138  A    between atoms: _333  and  _334
REMARK  139  A    between atoms: _337  and  _339
REMARK  140  A    between atoms: _339  and  _340
REMARK  141  A    between atoms: _339  and  _342
REMARK  142  A    between atoms: _342  and  _343
REMARK  143  A    between atoms: _346  and  _348
REMARK  144  A    between atoms: _348  and  _349
REMARK  145  A    between atoms: _348  and  _351
REMARK  146  A    between atoms: _351  and  _352
REMARK  147  A    between atoms: _355  and  _357
REMARK  148  A    between atoms: _357  and  _358
REMARK  149  A    between atoms: _360  and  _362
REMARK  150  A    between atoms: _362  and  _363
REMARK  151  A    between atoms: _366  and  _368
REMARK  152  A    between atoms: _368  and  _369
REMARK  153  A    between atoms: _368  and  _371
REMARK  154  A    between atoms: _371  and  _372
REMARK  155  A    between atoms: _375  and  _377
REMARK  156  A    between atoms: _377  and  _378
REMARK  157  A    between atoms: _377  and  _380
REMARK  158  A    between atoms: _380  and  _381
REMARK  159  A    between atoms: _384  and  _386
REMARK  160  A    between atoms: _386  and  _387
REMARK  161  A    between atoms: _386  and  _389
REMARK  162  A    between atoms: _389  and  _390
REMARK  163  A    between atoms: _393  and  _395
REMARK  164  A    between atoms: _395  and  _396
REMARK  165  A    between atoms: _395  and  _398
REMARK  166  A    between atoms: _401  and  _403
REMARK  167  A    between atoms: _403  and  _404
REMARK  168  A    between atoms: _403  and  _406
REMARK  169  A    between atoms: _406  and  _407
REMARK  170  A    between atoms: _407  and  _408
REMARK  171  A    between atoms: _408  and  _409
REMARK  172  A    between atoms: _409  and  _410
REMARK  173  A    between atoms: _414  and  _416
REMARK  174  A    between atoms: _416  and  _417
REMARK  175  A    between atoms: _416  and  _419
REMARK  176  A    between atoms: _419  and  _420
REMARK  177  A    between atoms: _420  and  _421
REMARK  178  A    between atoms: _423  and  _425
REMARK  179  A    between atoms: _425  and  _426
REMARK  180  A    between atoms: _425  and  _428
REMARK  181  A    between atoms: _428  and  _429
REMARK  182  A    between atoms: _432  and  _434
REMARK  183  A    between atoms: _434  and  _435
REMARK  184  A    between atoms: _437  and  _439
REMARK  185  A    between atoms: _439  and  _440
REMARK  186  A    between atoms: _442  and  _444
REMARK  187  A    between atoms: _444  and  _445
REMARK  188  A    between atoms: _444  and  _447
REMARK  189  A    between atoms: _447  and  _448
REMARK  190  A    between atoms: _451  and  _453
REMARK  191  A    between atoms: _453  and  _454
REMARK  192  A    between atoms: _456  and  _458
REMARK  193  A    between atoms: _458  and  _459
REMARK  194  A    between atoms: _461  and  _463
REMARK  195  A    between atoms: _463  and  _464
REMARK  196  A    between atoms: _463  and  _466
REMARK  197  A    between atoms: _466  and  _467
REMARK  198  A    between atoms: _473  and  _475
REMARK  199  A    between atoms: _475  and  _476
REMARK  200  A    between atoms: _475  and  _478
REMARK  201  A    between atoms: _478  and  _479
REMARK  202  A    between atoms: _482  and  _484
REMARK  203  A    between atoms: _484  and  _485
REMARK  204  A    between atoms: _484  and  _487
REMARK  205  A    between atoms: _490  and  _492
REMARK  206  A    between atoms: _492  and  _493
REMARK  207  A    between atoms: _492  and  _495
REMARK  208  A    between atoms: _495  and  _496
REMARK  209  A    between atoms: _499  and  _501
REMARK  210  A    between atoms: _501  and  _502
REMARK  211  A    between atoms: _501  and  _504
REMARK  212  A    between atoms: _504  and  _505
REMARK  213  A    between atoms: _509  and  _510
REMARK  214  A    between atoms: _515  and  _517
REMARK  215  A    between atoms: _517  and  _518
REMARK  216  A    between atoms: _517  and  _520
REMARK  217  A    between atoms: _520  and  _521
REMARK  218  A    between atoms: _524  and  _526
REMARK  219  A    between atoms: _526  and  _527
REMARK  220  A    between atoms: _526  and  _529
REMARK  221  A    between atoms: _529  and  _530
REMARK  222  A    between atoms: _535  and  _537
REMARK  223  A    between atoms: _537  and  _538
REMARK  224  A    between atoms: _537  and  _540
REMARK  225  A    between atoms: _543  and  _545
REMARK  226  A    between atoms: _545  and  _546
REMARK  227  A    between atoms: _545  and  _548
REMARK  228  A    between atoms: _548  and  _549
REMARK  229  A    between atoms: _552  and  _554
REMARK  230  A    between atoms: _554  and  _555
REMARK  231  A    between atoms: _557  and  _559
REMARK  232  A    between atoms: _559  and  _560
REMARK  233  A    between atoms: _559  and  _562
REMARK  234  A    between atoms: _562  and  _563
REMARK  235  A    between atoms: _563  and  _564
REMARK  236  A    between atoms: _564  and  _565
REMARK  237  A    between atoms: _574  and  _576
REMARK  238  A    between atoms: _576  and  _577
REMARK  239  A    between atoms: _576  and  _579
REMARK  240  A    between atoms: _579  and  _580
REMARK                            x       y       z     vdW  Elec       q    Type
REMARK                         _______ _______ _______ _____ _____    ______ ____
ROOT
ATOM      1  CA  VAL A   1       4.754  25.599  17.902  0.00  0.00    +0.133 C 
ENDROOT
BRANCH   1   2
ATOM      2  CB  VAL A   1       5.733  26.195  16.863  0.00  0.00    +0.023 C 
ATOM      3  CG2 VAL A   1       6.579  25.090  16.242  0.00  0.00    +0.002 C 
ATOM      4  CG1 VAL A   1       4.952  26.949  15.794  0.00  0.00    +0.002 C 
ENDBRANCH   1   2
BRANCH   1   5
ATOM      5  N   VAL A   1       3.818  24.677  17.268  0.00  0.00    -0.239 NA
ATOM      6  H   VAL A   1       3.062  25.057  16.663  0.00  0.00    +0.142 HD
ENDBRANCH   1   5
BRANCH   1   7
ATOM      7  C   VAL A   1       4.008  26.750  18.565  0.00  0.00    +0.224 C 
ATOM      8  O   VAL A   1       2.812  26.931  18.345  0.00  0.00    -0.287 OA
ENDBRANCH   1   7
TORSDOF 3
REMARK  Name = ../refined-set-2016/2wl0/2wl0_pocket.pdb
REMARK  240 active torsions:
REMARK  status: ('A' for Active; 'I' for Inactive)
REMARK    1  A    between atoms: _1  and  _3
REMARK    2  A    between atoms: _3  and  _4
REMARK    3  A    between atoms: _3  and  _6
REMARK    4  A    between atoms: _6  and  _7
REMARK    5  A    between atoms: _7  and  _8
REMARK    6  A    between atoms: _8  and  _9
REMARK    7  A    between atoms: _18  and  _20
REMARK    8  A    between atoms: _20  and  _21
REMARK    9  A    between atoms: _20  and  _23
REMARK   10  A    between atoms: _23  and  _24
REMARK   11  A    between atoms: _27  and  _29
REMARK   12  A    between atoms: _29  and  _30
REMARK   13  A    between atoms: _29  and  _32
REMARK   14  A    between atoms: _32  and  _33
REMARK   15  A    between atoms: _36  and  _38
REMARK   16  A    between atoms: _38  and  _39
REMARK   17  A    between atoms: _38  and  _41
REMARK   18  A    between atoms: _41  and  _42
REMARK   19  A    between atoms: _45  and  _47
REMARK   20  A    between atoms: _47  and  _48
REMARK   21  A    between atoms: _47  and  _50
REMARK   22  A    between atoms: _50  and  _51
REMARK   23  A    between atoms: _54  and  _56
REMARK   24  A    between atoms: _56  and  _57
REMARK   25  A    between atoms: _59  and  _61
REMARK   26  A    between atoms: _61  and  _62
REMARK   27  A    between atoms: _65  and  _67
REMARK   28  A    between atoms: _67  and  _68
REMARK   29  A    between atoms: _67  and  _70
REMARK   30  A    between atoms: _70  and  _71
REMARK   31  A    between atoms: _74  and  _76
REMARK   32  A    between atoms: _76  and  _77
REMARK   33  A    between atoms: _76  and  _79
REMARK   34  A    between atoms: _79  and  _80
REMARK   35  A    between atoms: _83  and  _85
REMARK   36  A    between atoms: _85  and  _86
REMARK   37  A    between atoms: _85  and  _88
REMARK   38  A    between atoms: _88  and  _89
REMARK   39  A    between atoms: _92  and  _94
REMARK   40  A    between atoms: _94  and  _95
REMARK   41  A    between atoms: _94  and  _97
REMARK   42  A    between atoms: _100  and  _102
REMARK   43  A    between atoms: _102  and  _103
REMARK   44  A    between atoms: _102  and  _105
REMARK   45  A    between atoms: _105  and  _106
REMARK   46  A    between atoms: _109  and  _111
REMARK   47  A    between atoms: _111  and  _112
REMARK   48  A    between atoms: _111  and  _114
REMARK   49  A    between atoms: _114  and  _115
REMARK   50  A    between atoms: _115  and  _116
REMARK   51  A    between atoms: _116  and  _117
REMARK   52  A    between atoms: _117  and  _118
REMARK   53  A    between atoms: _122  and  _124
REMARK   54  A    between atoms: _124  and  _125
REMARK   55  A    between atoms: _124  and  _127
REMARK   56  A    between atoms: _127  and  _128
REMARK   57  A    between atoms: _128  and  _129
REMARK   58  A    between atoms: _131  and  _133
REMARK   59  A    between atoms: _133  and  _134
REMARK   60  A    between atoms: _133  and  _136
REMARK   61  A    between atoms: _136  and  _137
REMARK   62  A    between atoms: _140  and  _142
REMARK   63  A    between atoms: _142  and  _143
REMARK   64  A    between atoms: _145  and  _147
REMARK   65  A    between atoms: _147  and  _148
REMARK   66  A    between atoms: _150  and  _152
REMARK   67  A    between atoms: _152  and  _153
REMARK   68  A    between atoms: _152  and  _155
REMARK   69  A    between atoms: _155  and  _156
REMARK   70  A    between atoms: _159  and  _161
REMARK   71  A    between atoms: _161  and  _162
REMARK   72  A    between atoms: _164  and  _166
REMARK   73  A    between atoms: _166  and  _167
REMARK   74  A    between atoms: _169  and  _171
REMARK   75  A    between atoms: _171  and  _172
REMARK   76  A    between atoms: _171  and  _174
REMARK   77  A    between atoms: _174  and  _175
REMARK   78  A    between atoms: _181  and  _183
REMARK   79  A    between atoms: _183  and  _184
REMARK   80  A    between atoms: _183  and  _186
REMARK   81  A    between atoms: _186  and  _187
REMARK   82  A    between atoms: _190  and  _192
REMARK   83  A    between atoms: _192  and  _193
REMARK   84  A    between atoms: _192  and  _195
REMARK   85  A    between atoms: _198  and  _200
REMARK   86  A    between atoms: _200  and  _201
REMARK   87  A    between atoms: _200  and  _203
REMARK   88  A    between atoms: _203  and  _204
REMARK   89  A    between atoms: _207  and  _209
REMARK   90  A    between atoms: _209  and  _210
REMARK   91  A    between atoms: _209  and  _212
REMARK   92  A    between atoms: _212  and  _213
REMARK   93  A    between atoms: _217  and  _218
REMARK   94  A    between atoms: _223  and  _225
REMARK   95  A    between atoms: _225  and  _226
REMARK   96  A    between atoms: _225  and  _228
REMARK   97  A    between atoms: _228  and  _229
REMARK   98  A    between atoms: _232  and  _234
REMARK   99  A    between atoms: _234  and  _235
REMARK  100  A    between atoms: _234  and  _237
REMARK  101  A    between atoms: _237  and  _238
REMARK  102  A    between atoms: _243  and  _245
REMARK  103  A    between atoms: _245  and  _246
REMARK  104  A    between atoms: _245  and  _248
REMARK  105  A    between atoms: _251  and  _253
REMARK  106  A    between atoms: _253  and  _254
REMARK  107  A    between atoms: _253  and  _256
REMARK  108  A    between atoms: _256  and  _257
REMARK  109  A    between atoms: _260  and  _262
REMARK  110  A    between atoms: _262  and  _263
REMARK  111  A    between atoms: _265  and  _267
REMARK  112  A    between atoms: _267  and  _268
REMARK  113  A    between atoms: _267  and  _270
REMARK  114  A    between atoms: _270  and  _271
REMARK  115  A    between atoms: _271  and  _272
REMARK  116  A    between atoms: _272  and  _273
REMARK  117  A    between atoms: _282  and  _284
REMARK  118  A    between atoms: _284  and  _285
REMARK  119  A    between atoms: _284  and  _287
REMARK  120  A    between atoms: _287  and  _288
REMARK  121  A    between atoms: _293  and  _295
REMARK  122  A    between atoms: _295  and  _296
REMARK  123  A    between atoms: _295  and  _298
REMARK  124  A    between atoms: _298  and  _299
REMARK  125  A    between atoms: _299  and  _300
REMARK  126  A    between atoms: _300  and  _301
REMARK  127  A    between atoms: _310  and  _312
REMARK  128  A    between atoms: _312  and  _313
REMARK  129  A    between atoms: _312  and  _315
REMARK  130  A    between atoms: _315  and  _316
REMARK  131  A    between atoms: _319  and  _321
REMARK  132  A    between atoms: _321  and  _322
REMARK  133  A    between atoms: _321  and  _324
REMARK  134  A    between atoms: _324  and  _325
REMARK  135  A    between atoms: _328  and  _330
REMARK  136  A    between atoms: _330  and  _331
REMARK  137  A    between atoms: _330  and  _333
REMARK  138  A    between atoms: _333  and  _334
REMARK  139  A    between atoms: _337  and  _339
REMARK  140  A    between atoms: _339  and  _340
REMARK  141  A    between atoms: _339  and  _342
REMARK  142  A    between atoms: _342  and  _343
REMARK  143  A    between atoms: _346  and  _348
REMARK  144  A    between atoms: _348  and  _349
REMARK  145  A    between atoms: _348  and  _351
REMARK  146  A    between atoms: _351  and  _352
REMARK  147  A    between atoms: _355  and  _357
REMARK  148  A    between atoms: _357  and  _358
REMARK  149  A    between atoms: _360  and  _362
REMARK  150  A    between atoms: _362  and  _363
REMARK  151  A    between atoms: _366  and  _368
REMARK  152  A    between atoms: _368  and  _369
REMARK  153  A    between atoms: _368  and  _371
REMARK  154  A    between atoms: _371  and  _372
REMARK  155  A    between atoms: _375  and  _377
REMARK  156  A    between atoms: _377  and  _378
REMARK  157  A    between atoms: _377  and  _380
REMARK  158  A    between atoms: _380  and  _381
REMARK  159  A    between atoms: _384  and  _386
REMARK  160  A    between atoms: _386  and  _387
REMARK  161  A    between atoms: _386  and  _389
REMARK  162  A    between atoms: _389  and  _390
REMARK  163  A    between atoms: _393  and  _395
REMARK  164  A    between atoms: _395  and  _396
REMARK  165  A    between atoms: _395  and  _398
REMARK  166  A    between atoms: _401  and  _403
REMARK  167  A    between atoms: _403  and  _404
REMARK  168  A    between atoms: _403  and  _406
REMARK  169  A    between atoms: _406  and  _407
REMARK  170  A    between atoms: _407  and  _408
REMARK  171  A    between atoms: _408  and  _409
REMARK  172  A    between atoms: _409  and  _410
REMARK  173  A    between atoms: _414  and  _416
REMARK  174  A    between atoms: _416  and  _417
REMARK  175  A    between atoms: _416  and  _419
REMARK  176  A    between atoms: _419  and  _420
REMARK  177  A    between atoms: _420  and  _421
REMARK  178  A    between atoms: _423  and  _425
REMARK  179  A    between atoms: _425  and  _426
REMARK  180  A    between atoms: _425  and  _428
REMARK  181  A    between atoms: _428  and  _429
REMARK  182  A    between atoms: _432  and  _434
REMARK  183  A    between atoms: _434  and  _435
REMARK  184  A    between atoms: _437  and  _439
REMARK  185  A    between atoms: _439  and  _440
REMARK  186  A    between atoms: _442  and  _444
REMARK  187  A    between atoms: _444  and  _445
REMARK  188  A    between atoms: _444  and  _447
REMARK  189  A    between atoms: _447  and  _448
REMARK  190  A    between atoms: _451  and  _453
REMARK  191  A    between atoms: _453  and  _454
REMARK  192  A    between atoms: _456  and  _458
REMARK  193  A    between atoms: _458  and  _459
REMARK  194  A    between atoms: _461  and  _463
REMARK  195  A    between atoms: _463  and  _464
REMARK  196  A    between atoms: _463  and  _466
REMARK  197  A    between atoms: _466  and  _467
REMARK  198  A    between atoms: _473  and  _475
REMARK  199  A    between atoms: _475  and  _476
REMARK  200  A    between atoms: _475  and  _478
REMARK  201  A    between atoms: _478  and  _479
REMARK  202  A    between atoms: _482  and  _484
REMARK  203  A    between atoms: _484  and  _485
REMARK  204  A    between atoms: _484  and  _487
REMARK  205  A    between atoms: _490  and  _492
REMARK  206  A    between atoms: _492  and  _493
REMARK  207  A    between atoms: _492  and  _495
REMARK  208  A    between atoms: _495  and  _496
REMARK  209  A    between atoms: _499  and  _501
REMARK  210  A    between atoms: _501  and  _502
REMARK  211  A    between atoms: _501  and  _504
REMARK  212  A    between atoms: _504  and  _505
REMARK  213  A    between atoms: _509  and  _510
REMARK  214  A    between atoms: _515  and  _517
REMARK  215  A    between atoms: _517  and  _518
REMARK  216  A    between atoms: _517  and  _520
REMARK  217  A    between atoms: _520  and  _521
REMARK  218  A    between atoms: _524  and  _526
REMARK  219  A    between atoms: _526  and  _527
REMARK  220  A    between atoms: _526  and  _529
REMARK  221  A    between atoms: _529  and  _530
REMARK  222  A    between atoms: _535  and  _537
REMARK  223  A    between atoms: _537  and  _538
REMARK  224  A    between atoms: _537  and  _540
REMARK  225  A    between atoms: _543  and  _545
REMARK  226  A    between atoms: _545  and  _546
REMARK  227  A    between atoms: _545  and  _548
REMARK  228  A    between atoms: _548  and  _549
REMARK  229  A    between atoms: _552  and  _554
REMARK  230  A    between atoms: _554  and  _555
REMARK  231  A    between atoms: _557  and  _559
REMARK  232  A    between atoms: _559  and  _560
REMARK  233  A    between atoms: _559  and  _562
REMARK  234  A    between atoms: _562  and  _563
REMARK  235  A    between atoms: _563  and  _564
REMARK  236  A    between atoms: _564  and  _565
REMARK  237  A    between atoms: _574  and  _576
REMARK  238  A    between atoms: _576  and  _577
REMARK  239  A    between atoms: _576  and  _579
REMARK  240  A    between atoms: _579  and  _580
REMARK                            x       y       z     vdW  Elec       q    Type
REMARK                         _______ _______ _______ _____ _____    ______ ____
ROOT
ATOM      1  CA  LEU A   1       8.154  30.422  16.718  0.00  0.00    +0.133 C 
ENDROOT
BRANCH   1   2
ATOM      2  N   LEU A   1       8.919  31.615  16.365  0.00  0.00    -0.239 NA
ATOM      3  H   LEU A   1       9.592  31.568  15.573  0.00  0.00    +0.142 HD
ENDBRANCH   1   2
BRANCH   1   4
ATOM      4  C   LEU A   1       9.014  29.529  17.605  0.00  0.00    +0.224 C 
ATOM      5  O   LEU A   1      10.225  29.429  17.413  0.00  0.00    -0.287 OA
ENDBRANCH   1   4
BRANCH   1   6
ATOM      6  CB  LEU A   1       7.745  29.657  15.450  0.00  0.00    +0.025 C 
BRANCH   6   7
ATOM      7  CG  LEU A   1       6.944  30.444  14.407  0.00  0.00    +0.002 C 
ATOM      8  CD2 LEU A   1       5.718  31.074  15.067  0.00  0.00    +0.000 C 
ATOM      9  CD1 LEU A   1       6.523  29.514  13.274  0.00  0.00    +0.000 C 
ENDBRANCH   6   7
ENDBRANCH   1   6
TORSDOF 4
REMARK  Name = ../refined-set-2016/2wl0/2wl0_pocket.pdb
REMARK  240 active torsions:
REMARK  status: ('A' for Active; 'I' for Inactive)
REMARK    1  A    between atoms: _1  and  _3
REMARK    2  A    between atoms: _3  and  _4
REMARK    3  A    between atoms: _3  and  _6
REMARK    4  A    between atoms: _6  and  _7
REMARK    5  A    between atoms: _7  and  _8
REMARK    6  A    between atoms: _8  and  _9
REMARK    7  A    between atoms: _18  and  _20
REMARK    8  A    between atoms: _20  and  _21
REMARK    9  A    between atoms: _20  and  _23
REMARK   10  A    between atoms: _23  and  _24
REMARK   11  A    between atoms: _27  and  _29
REMARK   12  A    between atoms: _29  and  _30
REMARK   13  A    between atoms: _29  and  _32
REMARK   14  A    between atoms: _32  and  _33
REMARK   15  A    between atoms: _36  and  _38
REMARK   16  A    between atoms: _38  and  _39
REMARK   17  A    between atoms: _38  and  _41
REMARK   18  A    between atoms: _41  and  _42
REMARK   19  A    between atoms: _45  and  _47
REMARK   20  A    between atoms: _47  and  _48
REMARK   21  A    between atoms: _47  and  _50
REMARK   22  A    between atoms: _50  and  _51
REMARK   23  A    between atoms: _54  and  _56
REMARK   24  A    between atoms: _56  and  _57
REMARK   25  A    between atoms: _59  and  _61
REMARK   26  A    between atoms: _61  and  _62
REMARK   27  A    between atoms: _65  and  _67
REMARK   28  A    between atoms: _67  and  _68
REMARK   29  A    between atoms: _67  and  _70
REMARK   30  A    between atoms: _70  and  _71
REMARK   31  A    between atoms: _74  and  _76
REMARK   32  A    between atoms: _76  and  _77
REMARK   33  A    between atoms: _76  and  _79
REMARK   34  A    between atoms: _79  and  _80
REMARK   35  A    between atoms: _83  and  _85
REMARK   36  A    between atoms: _85  and  _86
REMARK   37  A    between atoms: _85  and  _88
REMARK   38  A    between atoms: _88  and  _89
REMARK   39  A    between atoms: _92  and  _94
REMARK   40  A    between atoms: _94  and  _95
REMARK   41  A    between atoms: _94  and  _97
REMARK   42  A    between atoms: _100  and  _102
REMARK   43  A    between atoms: _102  and  _103
REMARK   44  A    between atoms: _102  and  _105
REMARK   45  A    between atoms: _105  and  _106
REMARK   46  A    between atoms: _109  and  _111
REMARK   47  A    between atoms: _111  and  _112
REMARK   48  A    between atoms: _111  and  _114
REMARK   49  A    between atoms: _114  and  _115
REMARK   50  A    between atoms: _115  and  _116
REMARK   51  A    between atoms: _116  and  _117
REMARK   52  A    between atoms: _117  and  _118
REMARK   53  A    between atoms: _122  and  _124
REMARK   54  A    between atoms: _124  and  _125
REMARK   55  A    between atoms: _124  and  _127
REMARK   56  A    between atoms: _127  and  _128
REMARK   57  A    between atoms: _128  and  _129
REMARK   58  A    between atoms: _131  and  _133
REMARK   59  A    between atoms: _133  and  _134
REMARK   60  A    between atoms: _133  and  _136
REMARK   61  A    between atoms: _136  and  _137
REMARK   62  A    between atoms: _140  and  _142
REMARK   63  A    between atoms: _142  and  _143
REMARK   64  A    between atoms: _145  and  _147
REMARK   65  A    between atoms: _147  and  _148
REMARK   66  A    between atoms: _150  and  _152
REMARK   67  A    between atoms: _152  and  _153
REMARK   68  A    between atoms: _152  and  _155
REMARK   69  A    between atoms: _155  and  _156
REMARK   70  A    between atoms: _159  and  _161
REMARK   71  A    between atoms: _161  and  _162
REMARK   72  A    between atoms: _164  and  _166
REMARK   73  A    between atoms: _166  and  _167
REMARK   74  A    between atoms: _169  and  _171
REMARK   75  A    between atoms: _171  and  _172
REMARK   76  A    between atoms: _171  and  _174
REMARK   77  A    between atoms: _174  and  _175
REMARK   78  A    between atoms: _181  and  _183
REMARK   79  A    between atoms: _183  and  _184
REMARK   80  A    between atoms: _183  and  _186
REMARK   81  A    between atoms: _186  and  _187
REMARK   82  A    between atoms: _190  and  _192
REMARK   83  A    between atoms: _192  and  _193
REMARK   84  A    between atoms: _192  and  _195
REMARK   85  A    between atoms: _198  and  _200
REMARK   86  A    between atoms: _200  and  _201
REMARK   87  A    between atoms: _200  and  _203
REMARK   88  A    between atoms: _203  and  _204
REMARK   89  A    between atoms: _207  and  _209
REMARK   90  A    between atoms: _209  and  _210
REMARK   91  A    between atoms: _209  and  _212
REMARK   92  A    between atoms: _212  and  _213
REMARK   93  A    between atoms: _217  and  _218
REMARK   94  A    between atoms: _223  and  _225
REMARK   95  A    between atoms: _225  and  _226
REMARK   96  A    between atoms: _225  and  _228
REMARK   97  A    between atoms: _228  and  _229
REMARK   98  A    between atoms: _232  and  _234
REMARK   99  A    between atoms: _234  and  _235
REMARK  100  A    between atoms: _234  and  _237
REMARK  101  A    between atoms: _237  and  _238
REMARK  102  A    between atoms: _243  and  _245
REMARK  103  A    between atoms: _245  and  _246
REMARK  104  A    between atoms: _245  and  _248
REMARK  105  A    between atoms: _251  and  _253
REMARK  106  A    between atoms: _253  and  _254
REMARK  107  A    between atoms: _253  and  _256
REMARK  108  A    between atoms: _256  and  _257
REMARK  109  A    between atoms: _260  and  _262
REMARK  110  A    between atoms: _262  and  _263
REMARK  111  A    between atoms: _265  and  _267
REMARK  112  A    between atoms: _267  and  _268
REMARK  113  A    between atoms: _267  and  _270
REMARK  114  A    between atoms: _270  and  _271
REMARK  115  A    between atoms: _271  and  _272
REMARK  116  A    between atoms: _272  and  _273
REMARK  117  A    between atoms: _282  and  _284
REMARK  118  A    between atoms: _284  and  _285
REMARK  119  A    between atoms: _284  and  _287
REMARK  120  A    between atoms: _287  and  _288
REMARK  121  A    between atoms: _293  and  _295
REMARK  122  A    between atoms: _295  and  _296
REMARK  123  A    between atoms: _295  and  _298
REMARK  124  A    between atoms: _298  and  _299
REMARK  125  A    between atoms: _299  and  _300
REMARK  126  A    between atoms: _300  and  _301
REMARK  127  A    between atoms: _310  and  _312
REMARK  128  A    between atoms: _312  and  _313
REMARK  129  A    between atoms: _312  and  _315
REMARK  130  A    between atoms: _315  and  _316
REMARK  131  A    between atoms: _319  and  _321
REMARK  132  A    between atoms: _321  and  _322
REMARK  133  A    between atoms: _321  and  _324
REMARK  134  A    between atoms: _324  and  _325
REMARK  135  A    between atoms: _328  and  _330
REMARK  136  A    between atoms: _330  and  _331
REMARK  137  A    between atoms: _330  and  _333
REMARK  138  A    between atoms: _333  and  _334
REMARK  139  A    between atoms: _337  and  _339
REMARK  140  A    between atoms: _339  and  _340
REMARK  141  A    between atoms: _339  and  _342
REMARK  142  A    between atoms: _342  and  _343
REMARK  143  A    between atoms: _346  and  _348
REMARK  144  A    between atoms: _348  and  _349
REMARK  145  A    between atoms: _348  and  _351
REMARK  146  A    between atoms: _351  and  _352
REMARK  147  A    between atoms: _355  and  _357
REMARK  148  A    between atoms: _357  and  _358
REMARK  149  A    between atoms: _360  and  _362
REMARK  150  A    between atoms: _362  and  _363
REMARK  151  A    between atoms: _366  and  _368
REMARK  152  A    between atoms: _368  and  _369
REMARK  153  A    between atoms: _368  and  _371
REMARK  154  A    between atoms: _371  and  _372
REMARK  155  A    between atoms: _375  and  _377
REMARK  156  A    between atoms: _377  and  _378
REMARK  157  A    between atoms: _377  and  _380
REMARK  158  A    between atoms: _380  and  _381
REMARK  159  A    between atoms: _384  and  _386
REMARK  160  A    between atoms: _386  and  _387
REMARK  161  A    between atoms: _386  and  _389
REMARK  162  A    between atoms: _389  and  _390
REMARK  163  A    between atoms: _393  and  _395
REMARK  164  A    between atoms: _395  and  _396
REMARK  165  A    between atoms: _395  and  _398
REMARK  166  A    between atoms: _401  and  _403
REMARK  167  A    between atoms: _403  and  _404
REMARK  168  A    between atoms: _403  and  _406
REMARK  169  A    between atoms: _406  and  _407
REMARK  170  A    between atoms: _407  and  _408
REMARK  171  A    between atoms: _408  and  _409
REMARK  172  A    between atoms: _409  and  _410
REMARK  173  A    between atoms: _414  and  _416
REMARK  174  A    between atoms: _416  and  _417
REMARK  175  A    between atoms: _416  and  _419
REMARK  176  A    between atoms: _419  and  _420
REMARK  177  A    between atoms: _420  and  _421
REMARK  178  A    between atoms: _423  and  _425
REMARK  179  A    between atoms: _425  and  _426
REMARK  180  A    between atoms: _425  and  _428
REMARK  181  A    between atoms: _428  and  _429
REMARK  182  A    between atoms: _432  and  _434
REMARK  183  A    between atoms: _434  and  _435
REMARK  184  A    between atoms: _437  and  _439
REMARK  185  A    between atoms: _439  and  _440
REMARK  186  A    between atoms: _442  and  _444
REMARK  187  A    between atoms: _444  and  _445
REMARK  188  A    between atoms: _444  and  _447
REMARK  189  A    between atoms: _447  and  _448
REMARK  190  A    between atoms: _451  and  _453
REMARK  191  A    between atoms: _453  and  _454
REMARK  192  A    between atoms: _456  and  _458
REMARK  193  A    between atoms: _458  and  _459
REMARK  194  A    between atoms: _461  and  _463
REMARK  195  A    between atoms: _463  and  _464
REMARK  196  A    between atoms: _463  and  _466
REMARK  197  A    between atoms: _466  and  _467
REMARK  198  A    between atoms: _473  and  _475
REMARK  199  A    between atoms: _475  and  _476
REMARK  200  A    between atoms: _475  and  _478
REMARK  201  A    between atoms: _478  and  _479
REMARK  202  A    between atoms: _482  and  _484
REMARK  203  A    between atoms: _484  and  _485
REMARK  204  A    between atoms: _484  and  _487
REMARK  205  A    between atoms: _490  and  _492
REMARK  206  A    between atoms: _492  and  _493
REMARK  207  A    between atoms: _492  and  _495
REMARK  208  A    between atoms: _495  and  _496
REMARK  209  A    between atoms: _499  and  _501
REMARK  210  A    between atoms: _501  and  _502
REMARK  211  A    between atoms: _501  and  _504
REMARK  212  A    between atoms: _504  and  _505
REMARK  213  A    between atoms: _509  and  _510
REMARK  214  A    between atoms: _515  and  _517
REMARK  215  A    between atoms: _517  and  _518
REMARK  216  A    between atoms: _517  and  _520
REMARK  217  A    between atoms: _520  and  _521
REMARK  218  A    between atoms: _524  and  _526
REMARK  219  A    between atoms: _526  and  _527
REMARK  220  A    between atoms: _526  and  _529
REMARK  221  A    between atoms: _529  and  _530
REMARK  222  A    between atoms: _535  and  _537
REMARK  223  A    between atoms: _537  and  _538
REMARK  224  A    between atoms: _537  and  _540
REMARK  225  A    between atoms: _543  and  _545
REMARK  226  A    between atoms: _545  and  _546
REMARK  227  A    between atoms: _545  and  _548
REMARK  228  A    between atoms: _548  and  _549
REMARK  229  A    between atoms: _552  and  _554
REMARK  230  A    between atoms: _554  and  _555
REMARK  231  A    between atoms: _557  and  _559
REMARK  232  A    between atoms: _559  and  _560
REMARK  233  A    between atoms: _559  and  _562
REMARK  234  A    between atoms: _562  and  _563
REMARK  235  A    between atoms: _563  and  _564
REMARK  236  A    between atoms: _564  and  _565
REMARK  237  A    between atoms: _574  and  _576
REMARK  238  A    between atoms: _576  and  _577
REMARK  239  A    between atoms: _576  and  _579
REMARK  240  A    between atoms: _579  and  _580
REMARK                            x       y       z     vdW  Elec       q    Type
REMARK                         _______ _______ _______ _____ _____    ______ ____
ROOT
ATOM      1  C   VAL A   5      15.558  29.549  11.776  0.00  0.00    +0.241 C 
ATOM      2  O   VAL A   5      14.624  29.973  12.454  0.00  0.00    -0.273 OA
ATOM      3  N   ILE A   6      16.309  30.333  11.004  0.00  0.00    -0.297 N 
ATOM      4  H   ILE A   6      17.118  29.920  10.497  0.00  0.00    +0.150 HD
ENDROOT
BRANCH   3   5
ATOM      5  CA  ILE A   6      16.025  31.756  10.852  0.00  0.00    +0.149 C 
BRANCH   5   6
ATOM      6  C   ILE A   6      15.371  31.864   9.478  0.00  0.00    +0.241 C 
ATOM      7  N   GLY A   7      14.090  32.207   9.464  0.00  0.00    -0.295 N 
ATOM      8  H   GLY A   7      13.600  32.410  10.359  0.00  0.00    +0.150 HD
ATOM      9  O   ILE A   6      16.013  31.625   8.452  0.00  0.00    -0.273 OA
BRANCH   7  10
ATOM     10  CA  GLY A   7      13.368  32.301   8.212  0.00  0.00    +0.176 C 
BRANCH  10  11
ATOM     11  C   GLY A   7      13.406  33.659   7.551  0.00  0.00    +0.243 C 
ATOM     12  O   GLY A   7      14.071  34.581   8.023  0.00  0.00    -0.273 OA
ATOM     13  N   ARG A   8      12.666  33.782   6.455  0.00  0.00    -0.297 N 
ATOM     14  H   ARG A   8      12.105  32.969   6.130  0.00  0.00    +0.150 HD
BRANCH  13  15
ATOM     15  CA  ARG A   8      12.618  35.023   5.696  0.00  0.00    +0.149 C 
BRANCH  15  16
ATOM     16  C   ARG A   8      12.093  36.239   6.462  0.00  0.00    +0.241 C 
ATOM     17  N   ASN A   9      11.192  36.027   7.417  0.00  0.00    -0.298 N 
ATOM     18  H   ASN A   9      10.880  35.057   7.628  0.00  0.00    +0.150 HD
ATOM     19  O   ARG A   8      12.510  37.360   6.190  0.00  0.00    -0.273 OA
BRANCH  17  20
ATOM     20  CA  ASN A   9      10.637  37.149   8.172  0.00  0.00    +0.146 C 
BRANCH  20  21
ATOM     21  C   ASN A   9      11.709  37.966   8.893  0.00  0.00    +0.227 C 
ATOM     22  O   ASN A   9      11.497  39.142   9.201  0.00  0.00    -0.286 OA
ENDBRANCH  20  21
BRANCH  20  23
ATOM     23  CB  ASN A   9       9.590  36.654   9.173  0.00  0.00    +0.112 C 
BRANCH  23  24
ATOM     24  CG  ASN A   9      10.202  35.911  10.338  0.00  0.00    +0.222 C 
ATOM     25  ND2 ASN A   9       9.872  36.344  11.554  0.00  0.00    -0.329 N 
ATOM     26 HD21 ASN A   9      10.258  35.872  12.397  0.00  0.00    +0.145 HD
ATOM     27 HD22 ASN A   9       9.229  37.154  11.661  0.00  0.00    +0.145 HD
ATOM     28  OD1 ASN A   9      10.958  34.958  10.154  0.00  0.00    -0.275 OA
ENDBRANCH  23  24
ENDBRANCH  20  23
ENDBRANCH  17  20
ENDBRANCH  15  16
BRANCH  15  29
ATOM     29  CB  ARG A   8      11.795  34.827   4.417  0.00  0.00    +0.033 C 
BRANCH  29  30
ATOM     30  CG  ARG A   8      12.408  33.816   3.452  0.00  0.00    +0.045 C 
BRANCH  30  31
ATOM     31  CD  ARG A   8      11.683  33.759   2.114  0.00  0.00    +0.174 C 
BRANCH  31  32
ATOM     32  NE  ARG A   8      10.315  33.263   2.244  0.00  0.00    -0.265 N 
ATOM     33  CZ  ARG A   8       9.241  34.039   2.329  0.00  0.00    +0.342 C 
ATOM     34  NH2 ARG A   8       8.041  33.491   2.461  0.00  0.00    -0.292 N 
ATOM     35 HH21 ARG A   8       7.198  34.096   2.528  0.00  0.00    +0.255 HD
ATOM     36 HH22 ARG A   8       7.943  32.456   2.498  0.00  0.00    +0.255 HD
ATOM     37  NH1 ARG A   8       9.363  35.360   2.292  0.00  0.00    -0.292 N 
ATOM     38 HH11 ARG A   8       8.518  35.962   2.359  0.00  0.00    +0.255 HD
ATOM     39 HH12 ARG A   8      10.304  35.793   2.196  0.00  0.00    +0.255 HD
ATOM     40  HE  ARG A   8      10.173  32.233   2.272  0.00  0.00    +0.259 HD
ENDBRANCH  31  32
ENDBRANCH  30  31
ENDBRANCH  29  30
ENDBRANCH  15  29
ENDBRANCH  13  15
ENDBRANCH  10  11
ENDBRANCH   7  10
ENDBRANCH   5   6
BRANCH   5  41
ATOM     41  CB  ILE A   6      17.304  32.614  10.857  0.00  0.00    +0.027 C 
ATOM     42  CG2 ILE A   6      16.947  34.073  10.592  0.00  0.00    +0.002 C 
BRANCH  41  43
ATOM     43  CG1 ILE A   6      18.015  32.485  12.205  0.00  0.00    +0.002 C 
ATOM     44  CD1 ILE A   6      19.373  33.165  12.237  0.00  0.00    +0.000 C 
ENDBRANCH  41  43
ENDBRANCH   5  41
ENDBRANCH   3   5
BRANCH   1  45
ATOM     45  CA  VAL A   5      15.929  28.068  11.790  0.00  0.00    +0.149 C 
BRANCH  45  47
ATOM     46  C   ASN A   4      17.140  26.901  13.535  0.00  0.00    +0.241 C 
ATOM     47  N   VAL A   5      16.027  27.498  13.125  0.00  0.00    -0.297 N 
ATOM     48  H   VAL A   5      15.212  27.559  13.769  0.00  0.00    +0.150 HD
ATOM     49  O   ASN A   4      18.151  26.821  12.839  0.00  0.00    -0.273 OA
BRANCH  46  50
ATOM     50  CA  ASN A   4      17.125  26.325  14.948  0.00  0.00    +0.158 C 
BRANCH  50  52
ATOM     51  C   THR A   3      16.691  23.974  14.475  0.00  0.00    +0.243 C 
ATOM     52  N   ASN A   4      17.520  24.915  14.930  0.00  0.00    -0.297 N 
ATOM     53  H   ASN A   4      18.462  24.643  15.277  0.00  0.00    +0.150 HD
ATOM     54  O   THR A   3      15.562  24.235  14.063  0.00  0.00    -0.273 OA
BRANCH  51  55
ATOM     55  CA  THR A   3      17.195  22.524  14.497  0.00  0.00    +0.176 C 
BRANCH  55  58
ATOM     56  C   PRO A   2      16.230  20.317  14.881  0.00  0.00    +0.241 C 
ATOM     57  O   PRO A   2      17.319  19.851  15.221  0.00  0.00    -0.273 OA
ATOM     58  N   THR A   3      16.072  21.587  14.514  0.00  0.00    -0.295 N 
ATOM     59  H   THR A   3      15.128  21.921  14.233  0.00  0.00    +0.150 HD
BRANCH  56  63
ATOM     60  C   THR A   1      13.335  21.013  15.732  0.00  0.00    +0.244 C 
ATOM     61  O   THR A   1      14.015  21.186  16.746  0.00  0.00    -0.273 OA
ATOM     62  N   PRO A   2      13.717  20.169  14.764  0.00  0.00    -0.272 N 
ATOM     63  CA  PRO A   2      14.980  19.434  14.872  0.00  0.00    +0.152 C 
ATOM     64  CB  PRO A   2      14.929  18.484  13.675  0.00  0.00    +0.031 C 
ATOM     65  CG  PRO A   2      14.073  19.217  12.701  0.00  0.00    +0.024 C 
ATOM     66  CD  PRO A   2      12.980  19.774  13.552  0.00  0.00    +0.094 C 
BRANCH  60  67
ATOM     67  CA  THR A   1      12.006  21.741  15.547  0.00  0.00    +0.172 C 
BRANCH  67  68
ATOM     68  N   THR A   1      11.307  21.736  16.822  0.00  0.00    -0.236 NA
ATOM     69  H   THR A   1      11.332  22.582  17.427  0.00  0.00    +0.142 HD
ENDBRANCH  67  68
BRANCH  67  70
ATOM     70  CB  THR A   1      12.268  23.179  15.052  0.00  0.00    +0.135 C 
ATOM     71  CG2 THR A   1      12.983  23.994  16.122  0.00  0.00    +0.034 C 
BRANCH  70  72
ATOM     72  OG1 THR A   1      13.064  23.138  13.862  0.00  0.00    -0.383 OA
ATOM     73  HG1 THR A   1      13.927  22.694  14.059  0.00  0.00    +0.210 HD
ENDBRANCH  70  72
ENDBRANCH  67  70
ENDBRANCH  60  67
ENDBRANCH  56  63
ENDBRANCH  55  58
BRANCH  55  74
ATOM     74  CB  THR A   3      18.110  22.265  13.265  0.00  0.00    +0.137 C 
ATOM     75  CG2 THR A   3      17.472  22.804  11.991  0.00  0.00    +0.034 C 
BRANCH  74  76
ATOM     76  OG1 THR A   3      19.376  22.906  13.463  0.00  0.00    -0.382 OA
ATOM     77  HG1 THR A   3      19.238  23.880  13.572  0.00  0.00    +0.210 HD
ENDBRANCH  74  76
ENDBRANCH  55  74
ENDBRANCH  51  55
ENDBRANCH  50  52
BRANCH  50  78
ATOM     78  CB  ASN A   4      18.067  27.154  15.826  0.00  0.00    +0.114 C 
BRANCH  78  79
ATOM     79  CG  ASN A   4      17.948  26.817  17.299  0.00  0.00    +0.222 C 
ATOM     80  ND2 ASN A   4      19.052  26.957  18.029  0.00  0.00    -0.329 N 
ATOM     81 HD21 ASN A   4      19.030  26.755  19.049  0.00  0.00    +0.145 HD
ATOM     82 HD22 ASN A   4      19.937  27.269  17.580  0.00  0.00    +0.145 HD
ATOM     83  OD1 ASN A   4      16.877  26.452  17.780  0.00  0.00    -0.275 OA
ENDBRANCH  78  79
ENDBRANCH  50  78
ENDBRANCH  46  50
ENDBRANCH  45  47
BRANCH  45  84
ATOM     84  CB  VAL A   5      14.882  27.305  10.947  0.00  0.00    +0.027 C 
ATOM     85  CG2 VAL A   5      15.263  25.839  10.854  0.00  0.00    +0.002 C 
ATOM     86  CG1 VAL A   5      14.774  27.921   9.559  0.00  0.00    +0.002 C 
ENDBRANCH  45  84
ENDBRANCH   1  45
TORSDOF 32
REMARK  Name = ../refined-set-2016/2wl0/2wl0_pocket.pdb
REMARK  240 active torsions:
REMARK  status: ('A' for Active; 'I' for Inactive)
REMARK    1  A    between atoms: _1  and  _3
REMARK    2  A    between atoms: _3  and  _4
REMARK    3  A    between atoms: _3  and  _6
REMARK    4  A    between atoms: _6  and  _7
REMARK    5  A    between atoms: _7  and  _8
REMARK    6  A    between atoms: _8  and  _9
REMARK    7  A    between atoms: _18  and  _20
REMARK    8  A    between atoms: _20  and  _21
REMARK    9  A    between atoms: _20  and  _23
REMARK   10  A    between atoms: _23  and  _24
REMARK   11  A    between atoms: _27  and  _29
REMARK   12  A    between atoms: _29  and  _30
REMARK   13  A    between atoms: _29  and  _32
REMARK   14  A    between atoms: _32  and  _33
REMARK   15  A    between atoms: _36  and  _38
REMARK   16  A    between atoms: _38  and  _39
REMARK   17  A    between atoms: _38  and  _41
REMARK   18  A    between atoms: _41  and  _42
REMARK   19  A    between atoms: _45  and  _47
REMARK   20  A    between atoms: _47  and  _48
REMARK   21  A    between atoms: _47  and  _50
REMARK   22  A    between atoms: _50  and  _51
REMARK   23  A    between atoms: _54  and  _56
REMARK   24  A    between atoms: _56  and  _57
REMARK   25  A    between atoms: _59  and  _61
REMARK   26  A    between atoms: _61  and  _62
REMARK   27  A    between atoms: _65  and  _67
REMARK   28  A    between atoms: _67  and  _68
REMARK   29  A    between atoms: _67  and  _70
REMARK   30  A    between atoms: _70  and  _71
REMARK   31  A    between atoms: _74  and  _76
REMARK   32  A    between atoms: _76  and  _77
REMARK   33  A    between atoms: _76  and  _79
REMARK   34  A    between atoms: _79  and  _80
REMARK   35  A    between atoms: _83  and  _85
REMARK   36  A    between atoms: _85  and  _86
REMARK   37  A    between atoms: _85  and  _88
REMARK   38  A    between atoms: _88  and  _89
REMARK   39  A    between atoms: _92  and  _94
REMARK   40  A    between atoms: _94  and  _95
REMARK   41  A    between atoms: _94  and  _97
REMARK   42  A    between atoms: _100  and  _102
REMARK   43  A    between atoms: _102  and  _103
REMARK   44  A    between atoms: _102  and  _105
REMARK   45  A    between atoms: _105  and  _106
REMARK   46  A    between atoms: _109  and  _111
REMARK   47  A    between atoms: _111  and  _112
REMARK   48  A    between atoms: _111  and  _114
REMARK   49  A    between atoms: _114  and  _115
REMARK   50  A    between atoms: _115  and  _116
REMARK   51  A    between atoms: _116  and  _117
REMARK   52  A    between atoms: _117  and  _118
REMARK   53  A    between atoms: _122  and  _124
REMARK   54  A    between atoms: _124  and  _125
REMARK   55  A    between atoms: _124  and  _127
REMARK   56  A    between atoms: _127  and  _128
REMARK   57  A    between atoms: _128  and  _129
REMARK   58  A    between atoms: _131  and  _133
REMARK   59  A    between atoms: _133  and  _134
REMARK   60  A    between atoms: _133  and  _136
REMARK   61  A    between atoms: _136  and  _137
REMARK   62  A    between atoms: _140  and  _142
REMARK   63  A    between atoms: _142  and  _143
REMARK   64  A    between atoms: _145  and  _147
REMARK   65  A    between atoms: _147  and  _148
REMARK   66  A    between atoms: _150  and  _152
REMARK   67  A    between atoms: _152  and  _153
REMARK   68  A    between atoms: _152  and  _155
REMARK   69  A    between atoms: _155  and  _156
REMARK   70  A    between atoms: _159  and  _161
REMARK   71  A    between atoms: _161  and  _162
REMARK   72  A    between atoms: _164  and  _166
REMARK   73  A    between atoms: _166  and  _167
REMARK   74  A    between atoms: _169  and  _171
REMARK   75  A    between atoms: _171  and  _172
REMARK   76  A    between atoms: _171  and  _174
REMARK   77  A    between atoms: _174  and  _175
REMARK   78  A    between atoms: _181  and  _183
REMARK   79  A    between atoms: _183  and  _184
REMARK   80  A    between atoms: _183  and  _186
REMARK   81  A    between atoms: _186  and  _187
REMARK   82  A    between atoms: _190  and  _192
REMARK   83  A    between atoms: _192  and  _193
REMARK   84  A    between atoms: _192  and  _195
REMARK   85  A    between atoms: _198  and  _200
REMARK   86  A    between atoms: _200  and  _201
REMARK   87  A    between atoms: _200  and  _203
REMARK   88  A    between atoms: _203  and  _204
REMARK   89  A    between atoms: _207  and  _209
REMARK   90  A    between atoms: _209  and  _210
REMARK   91  A    between atoms: _209  and  _212
REMARK   92  A    between atoms: _212  and  _213
REMARK   93  A    between atoms: _217  and  _218
REMARK   94  A    between atoms: _223  and  _225
REMARK   95  A    between atoms: _225  and  _226
REMARK   96  A    between atoms: _225  and  _228
REMARK   97  A    between atoms: _228  and  _229
REMARK   98  A    between atoms: _232  and  _234
REMARK   99  A    between atoms: _234  and  _235
REMARK  100  A    between atoms: _234  and  _237
REMARK  101  A    between atoms: _237  and  _238
REMARK  102  A    between atoms: _243  and  _245
REMARK  103  A    between atoms: _245  and  _246
REMARK  104  A    between atoms: _245  and  _248
REMARK  105  A    between atoms: _251  and  _253
REMARK  106  A    between atoms: _253  and  _254
REMARK  107  A    between atoms: _253  and  _256
REMARK  108  A    between atoms: _256  and  _257
REMARK  109  A    between atoms: _260  and  _262
REMARK  110  A    between atoms: _262  and  _263
REMARK  111  A    between atoms: _265  and  _267
REMARK  112  A    between atoms: _267  and  _268
REMARK  113  A    between atoms: _267  and  _270
REMARK  114  A    between atoms: _270  and  _271
REMARK  115  A    between atoms: _271  and  _272
REMARK  116  A    between atoms: _272  and  _273
REMARK  117  A    between atoms: _282  and  _284
REMARK  118  A    between atoms: _284  and  _285
REMARK  119  A    between atoms: _284  and  _287
REMARK  120  A    between atoms: _287  and  _288
REMARK  121  A    between atoms: _293  and  _295
REMARK  122  A    between atoms: _295  and  _296
REMARK  123  A    between atoms: _295  and  _298
REMARK  124  A    between atoms: _298  and  _299
REMARK  125  A    between atoms: _299  and  _300
REMARK  126  A    between atoms: _300  and  _301
REMARK  127  A    between atoms: _310  and  _312
REMARK  128  A    between atoms: _312  and  _313
REMARK  129  A    between atoms: _312  and  _315
REMARK  130  A    between atoms: _315  and  _316
REMARK  131  A    between atoms: _319  and  _321
REMARK  132  A    between atoms: _321  and  _322
REMARK  133  A    between atoms: _321  and  _324
REMARK  134  A    between atoms: _324  and  _325
REMARK  135  A    between atoms: _328  and  _330
REMARK  136  A    between atoms: _330  and  _331
REMARK  137  A    between atoms: _330  and  _333
REMARK  138  A    between atoms: _333  and  _334
REMARK  139  A    between atoms: _337  and  _339
REMARK  140  A    between atoms: _339  and  _340
REMARK  141  A    between atoms: _339  and  _342
REMARK  142  A    between atoms: _342  and  _343
REMARK  143  A    between atoms: _346  and  _348
REMARK  144  A    between atoms: _348  and  _349
REMARK  145  A    between atoms: _348  and  _351
REMARK  146  A    between atoms: _351  and  _352
REMARK  147  A    between atoms: _355  and  _357
REMARK  148  A    between atoms: _357  and  _358
REMARK  149  A    between atoms: _360  and  _362
REMARK  150  A    between atoms: _362  and  _363
REMARK  151  A    between atoms: _366  and  _368
REMARK  152  A    between atoms: _368  and  _369
REMARK  153  A    between atoms: _368  and  _371
REMARK  154  A    between atoms: _371  and  _372
REMARK  155  A    between atoms: _375  and  _377
REMARK  156  A    between atoms: _377  and  _378
REMARK  157  A    between atoms: _377  and  _380
REMARK  158  A    between atoms: _380  and  _381
REMARK  159  A    between atoms: _384  and  _386
REMARK  160  A    between atoms: _386  and  _387
REMARK  161  A    between atoms: _386  and  _389
REMARK  162  A    between atoms: _389  and  _390
REMARK  163  A    between atoms: _393  and  _395
REMARK  164  A    between atoms: _395  and  _396
REMARK  165  A    between atoms: _395  and  _398
REMARK  166  A    between atoms: _401  and  _403
REMARK  167  A    between atoms: _403  and  _404
REMARK  168  A    between atoms: _403  and  _406
REMARK  169  A    between atoms: _406  and  _407
REMARK  170  A    between atoms: _407  and  _408
REMARK  171  A    between atoms: _408  and  _409
REMARK  172  A    between atoms: _409  and  _410
REMARK  173  A    between atoms: _414  and  _416
REMARK  174  A    between atoms: _416  and  _417
REMARK  175  A    between atoms: _416  and  _419
REMARK  176  A    between atoms: _419  and  _420
REMARK  177  A    between atoms: _420  and  _421
REMARK  178  A    between atoms: _423  and  _425
REMARK  179  A    between atoms: _425  and  _426
REMARK  180  A    between atoms: _425  and  _428
REMARK  181  A    between atoms: _428  and  _429
REMARK  182  A    between atoms: _432  and  _434
REMARK  183  A    between atoms: _434  and  _435
REMARK  184  A    between atoms: _437  and  _439
REMARK  185  A    between atoms: _439  and  _440
REMARK  186  A    between atoms: _442  and  _444
REMARK  187  A    between atoms: _444  and  _445
REMARK  188  A    between atoms: _444  and  _447
REMARK  189  A    between atoms: _447  and  _448
REMARK  190  A    between atoms: _451  and  _453
REMARK  191  A    between atoms: _453  and  _454
REMARK  192  A    between atoms: _456  and  _458
REMARK  193  A    between atoms: _458  and  _459
REMARK  194  A    between atoms: _461  and  _463
REMARK  195  A    between atoms: _463  and  _464
REMARK  196  A    between atoms: _463  and  _466
REMARK  197  A    between atoms: _466  and  _467
REMARK  198  A    between atoms: _473  and  _475
REMARK  199  A    between atoms: _475  and  _476
REMARK  200  A    between atoms: _475  and  _478
REMARK  201  A    between atoms: _478  and  _479
REMARK  202  A    between atoms: _482  and  _484
REMARK  203  A    between atoms: _484  and  _485
REMARK  204  A    between atoms: _484  and  _487
REMARK  205  A    between atoms: _490  and  _492
REMARK  206  A    between atoms: _492  and  _493
REMARK  207  A    between atoms: _492  and  _495
REMARK  208  A    between atoms: _495  and  _496
REMARK  209  A    between atoms: _499  and  _501
REMARK  210  A    between atoms: _501  and  _502
REMARK  211  A    between atoms: _501  and  _504
REMARK  212  A    between atoms: _504  and  _505
REMARK  213  A    between atoms: _509  and  _510
REMARK  214  A    between atoms: _515  and  _517
REMARK  215  A    between atoms: _517  and  _518
REMARK  216  A    between atoms: _517  and  _520
REMARK  217  A    between atoms: _520  and  _521
REMARK  218  A    between atoms: _524  and  _526
REMARK  219  A    between atoms: _526  and  _527
REMARK  220  A    between atoms: _526  and  _529
REMARK  221  A    between atoms: _529  and  _530
REMARK  222  A    between atoms: _535  and  _537
REMARK  223  A    between atoms: _537  and  _538
REMARK  224  A    between atoms: _537  and  _540
REMARK  225  A    between atoms: _543  and  _545
REMARK  226  A    between atoms: _545  and  _546
REMARK  227  A    between atoms: _545  and  _548
REMARK  228  A    between atoms: _548  and  _549
REMARK  229  A    between atoms: _552  and  _554
REMARK  230  A    between atoms: _554  and  _555
REMARK  231  A    between atoms: _557  and  _559
REMARK  232  A    between atoms: _559  and  _560
REMARK  233  A    between atoms: _559  and  _562
REMARK  234  A    between atoms: _562  and  _563
REMARK  235  A    between atoms: _563  and  _564
REMARK  236  A    between atoms: _564  and  _565
REMARK  237  A    between atoms: _574  and  _576
REMARK  238  A    between atoms: _576  and  _577
REMARK  239  A    between atoms: _576  and  _579
REMARK  240  A    between atoms: _579  and  _580
REMARK                            x       y       z     vdW  Elec       q    Type
REMARK                         _______ _______ _______ _____ _____    ______ ____
ROOT
ATOM      1  NE  ARG A   1       6.225  30.055   0.761  0.00  0.00    -0.265 N 
ATOM      2  HE  ARG A   1       6.591  30.418   1.664  0.00  0.00    +0.259 HD
ATOM      3  CZ  ARG A   1       5.080  29.380   0.782  0.00  0.00    +0.342 C 
ATOM      4  NH2 ARG A   1       4.434  29.202   1.929  0.00  0.00    -0.292 N 
ATOM      5 HH21 ARG A   1       4.824  29.591   2.811  0.00  0.00    +0.255 HD
ATOM      6 HH22 ARG A   1       3.538  28.674   1.945  0.00  0.00    +0.255 HD
ATOM      7  NH1 ARG A   1       4.570  28.895  -0.344  0.00  0.00    -0.292 N 
ATOM      8 HH11 ARG A   1       3.674  28.367  -0.324  0.00  0.00    +0.255 HD
ATOM      9 HH12 ARG A   1       5.067  29.043  -1.246  0.00  0.00    +0.255 HD
ENDROOT
BRANCH   1  10
ATOM     10  CD  ARG A   1       7.002  30.320  -0.445  0.00  0.00    +0.174 C 
BRANCH  10  11
ATOM     11  CG  ARG A   1       7.959  31.474  -0.241  0.00  0.00    +0.045 C 
BRANCH  11  12
ATOM     12  CB  ARG A   1       8.639  31.861  -1.542  0.00  0.00    +0.029 C 
BRANCH  12  13
ATOM     13  CA  ARG A   1       9.602  33.043  -1.415  0.00  0.00    +0.133 C 
BRANCH  13  14
ATOM     14  N   ARG A   1       8.862  34.293  -1.278  0.00  0.00    -0.239 NA
ATOM     15  H   ARG A   1       7.824  34.287  -1.334  0.00  0.00    +0.142 HD
ENDBRANCH  13  14
BRANCH  13  16
ATOM     16  C   ARG A   1      10.507  33.090  -2.643  0.00  0.00    +0.224 C 
ATOM     17  O   ARG A   1      10.094  33.543  -3.712  0.00  0.00    -0.287 OA
ENDBRANCH  13  16
ENDBRANCH  12  13
ENDBRANCH  11  12
ENDBRANCH  10  11
ENDBRANCH   1  10
TORSDOF 6
REMARK  Name = ../refined-set-2016/2wl0/2wl0_pocket.pdb
REMARK  240 active torsions:
REMARK  status: ('A' for Active; 'I' for Inactive)
REMARK    1  A    between atoms: _1  and  _3
REMARK    2  A    between atoms: _3  and  _4
REMARK    3  A    between atoms: _3  and  _6
REMARK    4  A    between atoms: _6  and  _7
REMARK    5  A    between atoms: _7  and  _8
REMARK    6  A    between atoms: _8  and  _9
REMARK    7  A    between atoms: _18  and  _20
REMARK    8  A    between atoms: _20  and  _21
REMARK    9  A    between atoms: _20  and  _23
REMARK   10  A    between atoms: _23  and  _24
REMARK   11  A    between atoms: _27  and  _29
REMARK   12  A    between atoms: _29  and  _30
REMARK   13  A    between atoms: _29  and  _32
REMARK   14  A    between atoms: _32  and  _33
REMARK   15  A    between atoms: _36  and  _38
REMARK   16  A    between atoms: _38  and  _39
REMARK   17  A    between atoms: _38  and  _41
REMARK   18  A    between atoms: _41  and  _42
REMARK   19  A    between atoms: _45  and  _47
REMARK   20  A    between atoms: _47  and  _48
REMARK   21  A    between atoms: _47  and  _50
REMARK   22  A    between atoms: _50  and  _51
REMARK   23  A    between atoms: _54  and  _56
REMARK   24  A    between atoms: _56  and  _57
REMARK   25  A    between atoms: _59  and  _61
REMARK   26  A    between atoms: _61  and  _62
REMARK   27  A    between atoms: _65  and  _67
REMARK   28  A    between atoms: _67  and  _68
REMARK   29  A    between atoms: _67  and  _70
REMARK   30  A    between atoms: _70  and  _71
REMARK   31  A    between atoms: _74  and  _76
REMARK   32  A    between atoms: _76  and  _77
REMARK   33  A    between atoms: _76  and  _79
REMARK   34  A    between atoms: _79  and  _80
REMARK   35  A    between atoms: _83  and  _85
REMARK   36  A    between atoms: _85  and  _86
REMARK   37  A    between atoms: _85  and  _88
REMARK   38  A    between atoms: _88  and  _89
REMARK   39  A    between atoms: _92  and  _94
REMARK   40  A    between atoms: _94  and  _95
REMARK   41  A    between atoms: _94  and  _97
REMARK   42  A    between atoms: _100  and  _102
REMARK   43  A    between atoms: _102  and  _103
REMARK   44  A    between atoms: _102  and  _105
REMARK   45  A    between atoms: _105  and  _106
REMARK   46  A    between atoms: _109  and  _111
REMARK   47  A    between atoms: _111  and  _112
REMARK   48  A    between atoms: _111  and  _114
REMARK   49  A    between atoms: _114  and  _115
REMARK   50  A    between atoms: _115  and  _116
REMARK   51  A    between atoms: _116  and  _117
REMARK   52  A    between atoms: _117  and  _118
REMARK   53  A    between atoms: _122  and  _124
REMARK   54  A    between atoms: _124  and  _125
REMARK   55  A    between atoms: _124  and  _127
REMARK   56  A    between atoms: _127  and  _128
REMARK   57  A    between atoms: _128  and  _129
REMARK   58  A    between atoms: _131  and  _133
REMARK   59  A    between atoms: _133  and  _134
REMARK   60  A    between atoms: _133  and  _136
REMARK   61  A    between atoms: _136  and  _137
REMARK   62  A    between atoms: _140  and  _142
REMARK   63  A    between atoms: _142  and  _143
REMARK   64  A    between atoms: _145  and  _147
REMARK   65  A    between atoms: _147  and  _148
REMARK   66  A    between atoms: _150  and  _152
REMARK   67  A    between atoms: _152  and  _153
REMARK   68  A    between atoms: _152  and  _155
REMARK   69  A    between atoms: _155  and  _156
REMARK   70  A    between atoms: _159  and  _161
REMARK   71  A    between atoms: _161  and  _162
REMARK   72  A    between atoms: _164  and  _166
REMARK   73  A    between atoms: _166  and  _167
REMARK   74  A    between atoms: _169  and  _171
REMARK   75  A    between atoms: _171  and  _172
REMARK   76  A    between atoms: _171  and  _174
REMARK   77  A    between atoms: _174  and  _175
REMARK   78  A    between atoms: _181  and  _183
REMARK   79  A    between atoms: _183  and  _184
REMARK   80  A    between atoms: _183  and  _186
REMARK   81  A    between atoms: _186  and  _187
REMARK   82  A    between atoms: _190  and  _192
REMARK   83  A    between atoms: _192  and  _193
REMARK   84  A    between atoms: _192  and  _195
REMARK   85  A    between atoms: _198  and  _200
REMARK   86  A    between atoms: _200  and  _201
REMARK   87  A    between atoms: _200  and  _203
REMARK   88  A    between atoms: _203  and  _204
REMARK   89  A    between atoms: _207  and  _209
REMARK   90  A    between atoms: _209  and  _210
REMARK   91  A    between atoms: _209  and  _212
REMARK   92  A    between atoms: _212  and  _213
REMARK   93  A    between atoms: _217  and  _218
REMARK   94  A    between atoms: _223  and  _225
REMARK   95  A    between atoms: _225  and  _226
REMARK   96  A    between atoms: _225  and  _228
REMARK   97  A    between atoms: _228  and  _229
REMARK   98  A    between atoms: _232  and  _234
REMARK   99  A    between atoms: _234  and  _235
REMARK  100  A    between atoms: _234  and  _237
REMARK  101  A    between atoms: _237  and  _238
REMARK  102  A    between atoms: _243  and  _245
REMARK  103  A    between atoms: _245  and  _246
REMARK  104  A    between atoms: _245  and  _248
REMARK  105  A    between atoms: _251  and  _253
REMARK  106  A    between atoms: _253  and  _254
REMARK  107  A    between atoms: _253  and  _256
REMARK  108  A    between atoms: _256  and  _257
REMARK  109  A    between atoms: _260  and  _262
REMARK  110  A    between atoms: _262  and  _263
REMARK  111  A    between atoms: _265  and  _267
REMARK  112  A    between atoms: _267  and  _268
REMARK  113  A    between atoms: _267  and  _270
REMARK  114  A    between atoms: _270  and  _271
REMARK  115  A    between atoms: _271  and  _272
REMARK  116  A    between atoms: _272  and  _273
REMARK  117  A    between atoms: _282  and  _284
REMARK  118  A    between atoms: _284  and  _285
REMARK  119  A    between atoms: _284  and  _287
REMARK  120  A    between atoms: _287  and  _288
REMARK  121  A    between atoms: _293  and  _295
REMARK  122  A    between atoms: _295  and  _296
REMARK  123  A    between atoms: _295  and  _298
REMARK  124  A    between atoms: _298  and  _299
REMARK  125  A    between atoms: _299  and  _300
REMARK  126  A    between atoms: _300  and  _301
REMARK  127  A    between atoms: _310  and  _312
REMARK  128  A    between atoms: _312  and  _313
REMARK  129  A    between atoms: _312  and  _315
REMARK  130  A    between atoms: _315  and  _316
REMARK  131  A    between atoms: _319  and  _321
REMARK  132  A    between atoms: _321  and  _322
REMARK  133  A    between atoms: _321  and  _324
REMARK  134  A    between atoms: _324  and  _325
REMARK  135  A    between atoms: _328  and  _330
REMARK  136  A    between atoms: _330  and  _331
REMARK  137  A    between atoms: _330  and  _333
REMARK  138  A    between atoms: _333  and  _334
REMARK  139  A    between atoms: _337  and  _339
REMARK  140  A    between atoms: _339  and  _340
REMARK  141  A    between atoms: _339  and  _342
REMARK  142  A    between atoms: _342  and  _343
REMARK  143  A    between atoms: _346  and  _348
REMARK  144  A    between atoms: _348  and  _349
REMARK  145  A    between atoms: _348  and  _351
REMARK  146  A    between atoms: _351  and  _352
REMARK  147  A    between atoms: _355  and  _357
REMARK  148  A    between atoms: _357  and  _358
REMARK  149  A    between atoms: _360  and  _362
REMARK  150  A    between atoms: _362  and  _363
REMARK  151  A    between atoms: _366  and  _368
REMARK  152  A    between atoms: _368  and  _369
REMARK  153  A    between atoms: _368  and  _371
REMARK  154  A    between atoms: _371  and  _372
REMARK  155  A    between atoms: _375  and  _377
REMARK  156  A    between atoms: _377  and  _378
REMARK  157  A    between atoms: _377  and  _380
REMARK  158  A    between atoms: _380  and  _381
REMARK  159  A    between atoms: _384  and  _386
REMARK  160  A    between atoms: _386  and  _387
REMARK  161  A    between atoms: _386  and  _389
REMARK  162  A    between atoms: _389  and  _390
REMARK  163  A    between atoms: _393  and  _395
REMARK  164  A    between atoms: _395  and  _396
REMARK  165  A    between atoms: _395  and  _398
REMARK  166  A    between atoms: _401  and  _403
REMARK  167  A    between atoms: _403  and  _404
REMARK  168  A    between atoms: _403  and  _406
REMARK  169  A    between atoms: _406  and  _407
REMARK  170  A    between atoms: _407  and  _408
REMARK  171  A    between atoms: _408  and  _409
REMARK  172  A    between atoms: _409  and  _410
REMARK  173  A    between atoms: _414  and  _416
REMARK  174  A    between atoms: _416  and  _417
REMARK  175  A    between atoms: _416  and  _419
REMARK  176  A    between atoms: _419  and  _420
REMARK  177  A    between atoms: _420  and  _421
REMARK  178  A    between atoms: _423  and  _425
REMARK  179  A    between atoms: _425  and  _426
REMARK  180  A    between atoms: _425  and  _428
REMARK  181  A    between atoms: _428  and  _429
REMARK  182  A    between atoms: _432  and  _434
REMARK  183  A    between atoms: _434  and  _435
REMARK  184  A    between atoms: _437  and  _439
REMARK  185  A    between atoms: _439  and  _440
REMARK  186  A    between atoms: _442  and  _444
REMARK  187  A    between atoms: _444  and  _445
REMARK  188  A    between atoms: _444  and  _447
REMARK  189  A    between atoms: _447  and  _448
REMARK  190  A    between atoms: _451  and  _453
REMARK  191  A    between atoms: _453  and  _454
REMARK  192  A    between atoms: _456  and  _458
REMARK  193  A    between atoms: _458  and  _459
REMARK  194  A    between atoms: _461  and  _463
REMARK  195  A    between atoms: _463  and  _464
REMARK  196  A    between atoms: _463  and  _466
REMARK  197  A    between atoms: _466  and  _467
REMARK  198  A    between atoms: _473  and  _475
REMARK  199  A    between atoms: _475  and  _476
REMARK  200  A    between atoms: _475  and  _478
REMARK  201  A    between atoms: _478  and  _479
REMARK  202  A    between atoms: _482  and  _484
REMARK  203  A    between atoms: _484  and  _485
REMARK  204  A    between atoms: _484  and  _487
REMARK  205  A    between atoms: _490  and  _492
REMARK  206  A    between atoms: _492  and  _493
REMARK  207  A    between atoms: _492  and  _495
REMARK  208  A    between atoms: _495  and  _496
REMARK  209  A    between atoms: _499  and  _501
REMARK  210  A    between atoms: _501  and  _502
REMARK  211  A    between atoms: _501  and  _504
REMARK  212  A    between atoms: _504  and  _505
REMARK  213  A    between atoms: _509  and  _510
REMARK  214  A    between atoms: _515  and  _517
REMARK  215  A    between atoms: _517  and  _518
REMARK  216  A    between atoms: _517  and  _520
REMARK  217  A    between atoms: _520  and  _521
REMARK  218  A    between atoms: _524  and  _526
REMARK  219  A    between atoms: _526  and  _527
REMARK  220  A    between atoms: _526  and  _529
REMARK  221  A    between atoms: _529  and  _530
REMARK  222  A    between atoms: _535  and  _537
REMARK  223  A    between atoms: _537  and  _538
REMARK  224  A    between atoms: _537  and  _540
REMARK  225  A    between atoms: _543  and  _545
REMARK  226  A    between atoms: _545  and  _546
REMARK  227  A    between atoms: _545  and  _548
REMARK  228  A    between atoms: _548  and  _549
REMARK  229  A    between atoms: _552  and  _554
REMARK  230  A    between atoms: _554  and  _555
REMARK  231  A    between atoms: _557  and  _559
REMARK  232  A    between atoms: _559  and  _560
REMARK  233  A    between atoms: _559  and  _562
REMARK  234  A    between atoms: _562  and  _563
REMARK  235  A    between atoms: _563  and  _564
REMARK  236  A    between atoms: _564  and  _565
REMARK  237  A    between atoms: _574  and  _576
REMARK  238  A    between atoms: _576  and  _577
REMARK  239  A    between atoms: _576  and  _579
REMARK  240  A    between atoms: _579  and  _580
REMARK                            x       y       z     vdW  Elec       q    Type
REMARK                         _______ _______ _______ _____ _____    ______ ____
ROOT
ATOM      1  CA  LEU A   1      10.856  30.598  -6.252  0.00  0.00    +0.133 C 
ENDROOT
BRANCH   1   2
ATOM      2  N   LEU A   1      11.274  31.603  -5.281  0.00  0.00    -0.239 NA
ATOM      3  H   LEU A   1      10.662  32.428  -5.115  0.00  0.00    +0.142 HD
ENDBRANCH   1   2
BRANCH   1   4
ATOM      4  C   LEU A   1      11.450  30.928  -7.606  0.00  0.00    +0.224 C 
ATOM      5  O   LEU A   1      11.453  32.085  -8.027  0.00  0.00    -0.287 OA
ENDBRANCH   1   4
BRANCH   1   6
ATOM      6  CB  LEU A   1       9.331  30.562  -6.360  0.00  0.00    +0.025 C 
BRANCH   6   7
ATOM      7  CG  LEU A   1       8.557  30.120  -5.118  0.00  0.00    +0.002 C 
ATOM      8  CD2 LEU A   1       8.810  28.644  -4.858  0.00  0.00    +0.000 C 
ATOM      9  CD1 LEU A   1       7.074  30.384  -5.321  0.00  0.00    +0.000 C 
ENDBRANCH   6   7
ENDBRANCH   1   6
TORSDOF 4
REMARK  Name = ../refined-set-2016/2wl0/2wl0_pocket.pdb
REMARK  240 active torsions:
REMARK  status: ('A' for Active; 'I' for Inactive)
REMARK    1  A    between atoms: _1  and  _3
REMARK    2  A    between atoms: _3  and  _4
REMARK    3  A    between atoms: _3  and  _6
REMARK    4  A    between atoms: _6  and  _7
REMARK    5  A    between atoms: _7  and  _8
REMARK    6  A    between atoms: _8  and  _9
REMARK    7  A    between atoms: _18  and  _20
REMARK    8  A    between atoms: _20  and  _21
REMARK    9  A    between atoms: _20  and  _23
REMARK   10  A    between atoms: _23  and  _24
REMARK   11  A    between atoms: _27  and  _29
REMARK   12  A    between atoms: _29  and  _30
REMARK   13  A    between atoms: _29  and  _32
REMARK   14  A    between atoms: _32  and  _33
REMARK   15  A    between atoms: _36  and  _38
REMARK   16  A    between atoms: _38  and  _39
REMARK   17  A    between atoms: _38  and  _41
REMARK   18  A    between atoms: _41  and  _42
REMARK   19  A    between atoms: _45  and  _47
REMARK   20  A    between atoms: _47  and  _48
REMARK   21  A    between atoms: _47  and  _50
REMARK   22  A    between atoms: _50  and  _51
REMARK   23  A    between atoms: _54  and  _56
REMARK   24  A    between atoms: _56  and  _57
REMARK   25  A    between atoms: _59  and  _61
REMARK   26  A    between atoms: _61  and  _62
REMARK   27  A    between atoms: _65  and  _67
REMARK   28  A    between atoms: _67  and  _68
REMARK   29  A    between atoms: _67  and  _70
REMARK   30  A    between atoms: _70  and  _71
REMARK   31  A    between atoms: _74  and  _76
REMARK   32  A    between atoms: _76  and  _77
REMARK   33  A    between atoms: _76  and  _79
REMARK   34  A    between atoms: _79  and  _80
REMARK   35  A    between atoms: _83  and  _85
REMARK   36  A    between atoms: _85  and  _86
REMARK   37  A    between atoms: _85  and  _88
REMARK   38  A    between atoms: _88  and  _89
REMARK   39  A    between atoms: _92  and  _94
REMARK   40  A    between atoms: _94  and  _95
REMARK   41  A    between atoms: _94  and  _97
REMARK   42  A    between atoms: _100  and  _102
REMARK   43  A    between atoms: _102  and  _103
REMARK   44  A    between atoms: _102  and  _105
REMARK   45  A    between atoms: _105  and  _106
REMARK   46  A    between atoms: _109  and  _111
REMARK   47  A    between atoms: _111  and  _112
REMARK   48  A    between atoms: _111  and  _114
REMARK   49  A    between atoms: _114  and  _115
REMARK   50  A    between atoms: _115  and  _116
REMARK   51  A    between atoms: _116  and  _117
REMARK   52  A    between atoms: _117  and  _118
REMARK   53  A    between atoms: _122  and  _124
REMARK   54  A    between atoms: _124  and  _125
REMARK   55  A    between atoms: _124  and  _127
REMARK   56  A    between atoms: _127  and  _128
REMARK   57  A    between atoms: _128  and  _129
REMARK   58  A    between atoms: _131  and  _133
REMARK   59  A    between atoms: _133  and  _134
REMARK   60  A    between atoms: _133  and  _136
REMARK   61  A    between atoms: _136  and  _137
REMARK   62  A    between atoms: _140  and  _142
REMARK   63  A    between atoms: _142  and  _143
REMARK   64  A    between atoms: _145  and  _147
REMARK   65  A    between atoms: _147  and  _148
REMARK   66  A    between atoms: _150  and  _152
REMARK   67  A    between atoms: _152  and  _153
REMARK   68  A    between atoms: _152  and  _155
REMARK   69  A    between atoms: _155  and  _156
REMARK   70  A    between atoms: _159  and  _161
REMARK   71  A    between atoms: _161  and  _162
REMARK   72  A    between atoms: _164  and  _166
REMARK   73  A    between atoms: _166  and  _167
REMARK   74  A    between atoms: _169  and  _171
REMARK   75  A    between atoms: _171  and  _172
REMARK   76  A    between atoms: _171  and  _174
REMARK   77  A    between atoms: _174  and  _175
REMARK   78  A    between atoms: _181  and  _183
REMARK   79  A    between atoms: _183  and  _184
REMARK   80  A    between atoms: _183  and  _186
REMARK   81  A    between atoms: _186  and  _187
REMARK   82  A    between atoms: _190  and  _192
REMARK   83  A    between atoms: _192  and  _193
REMARK   84  A    between atoms: _192  and  _195
REMARK   85  A    between atoms: _198  and  _200
REMARK   86  A    between atoms: _200  and  _201
REMARK   87  A    between atoms: _200  and  _203
REMARK   88  A    between atoms: _203  and  _204
REMARK   89  A    between atoms: _207  and  _209
REMARK   90  A    between atoms: _209  and  _210
REMARK   91  A    between atoms: _209  and  _212
REMARK   92  A    between atoms: _212  and  _213
REMARK   93  A    between atoms: _217  and  _218
REMARK   94  A    between atoms: _223  and  _225
REMARK   95  A    between atoms: _225  and  _226
REMARK   96  A    between atoms: _225  and  _228
REMARK   97  A    between atoms: _228  and  _229
REMARK   98  A    between atoms: _232  and  _234
REMARK   99  A    between atoms: _234  and  _235
REMARK  100  A    between atoms: _234  and  _237
REMARK  101  A    between atoms: _237  and  _238
REMARK  102  A    between atoms: _243  and  _245
REMARK  103  A    between atoms: _245  and  _246
REMARK  104  A    between atoms: _245  and  _248
REMARK  105  A    between atoms: _251  and  _253
REMARK  106  A    between atoms: _253  and  _254
REMARK  107  A    between atoms: _253  and  _256
REMARK  108  A    between atoms: _256  and  _257
REMARK  109  A    between atoms: _260  and  _262
REMARK  110  A    between atoms: _262  and  _263
REMARK  111  A    between atoms: _265  and  _267
REMARK  112  A    between atoms: _267  and  _268
REMARK  113  A    between atoms: _267  and  _270
REMARK  114  A    between atoms: _270  and  _271
REMARK  115  A    between atoms: _271  and  _272
REMARK  116  A    between atoms: _272  and  _273
REMARK  117  A    between atoms: _282  and  _284
REMARK  118  A    between atoms: _284  and  _285
REMARK  119  A    between atoms: _284  and  _287
REMARK  120  A    between atoms: _287  and  _288
REMARK  121  A    between atoms: _293  and  _295
REMARK  122  A    between atoms: _295  and  _296
REMARK  123  A    between atoms: _295  and  _298
REMARK  124  A    between atoms: _298  and  _299
REMARK  125  A    between atoms: _299  and  _300
REMARK  126  A    between atoms: _300  and  _301
REMARK  127  A    between atoms: _310  and  _312
REMARK  128  A    between atoms: _312  and  _313
REMARK  129  A    between atoms: _312  and  _315
REMARK  130  A    between atoms: _315  and  _316
REMARK  131  A    between atoms: _319  and  _321
REMARK  132  A    between atoms: _321  and  _322
REMARK  133  A    between atoms: _321  and  _324
REMARK  134  A    between atoms: _324  and  _325
REMARK  135  A    between atoms: _328  and  _330
REMARK  136  A    between atoms: _330  and  _331
REMARK  137  A    between atoms: _330  and  _333
REMARK  138  A    between atoms: _333  and  _334
REMARK  139  A    between atoms: _337  and  _339
REMARK  140  A    between atoms: _339  and  _340
REMARK  141  A    between atoms: _339  and  _342
REMARK  142  A    between atoms: _342  and  _343
REMARK  143  A    between atoms: _346  and  _348
REMARK  144  A    between atoms: _348  and  _349
REMARK  145  A    between atoms: _348  and  _351
REMARK  146  A    between atoms: _351  and  _352
REMARK  147  A    between atoms: _355  and  _357
REMARK  148  A    between atoms: _357  and  _358
REMARK  149  A    between atoms: _360  and  _362
REMARK  150  A    between atoms: _362  and  _363
REMARK  151  A    between atoms: _366  and  _368
REMARK  152  A    between atoms: _368  and  _369
REMARK  153  A    between atoms: _368  and  _371
REMARK  154  A    between atoms: _371  and  _372
REMARK  155  A    between atoms: _375  and  _377
REMARK  156  A    between atoms: _377  and  _378
REMARK  157  A    between atoms: _377  and  _380
REMARK  158  A    between atoms: _380  and  _381
REMARK  159  A    between atoms: _384  and  _386
REMARK  160  A    between atoms: _386  and  _387
REMARK  161  A    between atoms: _386  and  _389
REMARK  162  A    between atoms: _389  and  _390
REMARK  163  A    between atoms: _393  and  _395
REMARK  164  A    between atoms: _395  and  _396
REMARK  165  A    between atoms: _395  and  _398
REMARK  166  A    between atoms: _401  and  _403
REMARK  167  A    between atoms: _403  and  _404
REMARK  168  A    between atoms: _403  and  _406
REMARK  169  A    between atoms: _406  and  _407
REMARK  170  A    between atoms: _407  and  _408
REMARK  171  A    between atoms: _408  and  _409
REMARK  172  A    between atoms: _409  and  _410
REMARK  173  A    between atoms: _414  and  _416
REMARK  174  A    between atoms: _416  and  _417
REMARK  175  A    between atoms: _416  and  _419
REMARK  176  A    between atoms: _419  and  _420
REMARK  177  A    between atoms: _420  and  _421
REMARK  178  A    between atoms: _423  and  _425
REMARK  179  A    between atoms: _425  and  _426
REMARK  180  A    between atoms: _425  and  _428
REMARK  181  A    between atoms: _428  and  _429
REMARK  182  A    between atoms: _432  and  _434
REMARK  183  A    between atoms: _434  and  _435
REMARK  184  A    between atoms: _437  and  _439
REMARK  185  A    between atoms: _439  and  _440
REMARK  186  A    between atoms: _442  and  _444
REMARK  187  A    between atoms: _444  and  _445
REMARK  188  A    between atoms: _444  and  _447
REMARK  189  A    between atoms: _447  and  _448
REMARK  190  A    between atoms: _451  and  _453
REMARK  191  A    between atoms: _453  and  _454
REMARK  192  A    between atoms: _456  and  _458
REMARK  193  A    between atoms: _458  and  _459
REMARK  194  A    between atoms: _461  and  _463
REMARK  195  A    between atoms: _463  and  _464
REMARK  196  A    between atoms: _463  and  _466
REMARK  197  A    between atoms: _466  and  _467
REMARK  198  A    between atoms: _473  and  _475
REMARK  199  A    between atoms: _475  and  _476
REMARK  200  A    between atoms: _475  and  _478
REMARK  201  A    between atoms: _478  and  _479
REMARK  202  A    between atoms: _482  and  _484
REMARK  203  A    between atoms: _484  and  _485
REMARK  204  A    between atoms: _484  and  _487
REMARK  205  A    between atoms: _490  and  _492
REMARK  206  A    between atoms: _492  and  _493
REMARK  207  A    between atoms: _492  and  _495
REMARK  208  A    between atoms: _495  and  _496
REMARK  209  A    between atoms: _499  and  _501
REMARK  210  A    between atoms: _501  and  _502
REMARK  211  A    between atoms: _501  and  _504
REMARK  212  A    between atoms: _504  and  _505
REMARK  213  A    between atoms: _509  and  _510
REMARK  214  A    between atoms: _515  and  _517
REMARK  215  A    between atoms: _517  and  _518
REMARK  216  A    between atoms: _517  and  _520
REMARK  217  A    between atoms: _520  and  _521
REMARK  218  A    between atoms: _524  and  _526
REMARK  219  A    between atoms: _526  and  _527
REMARK  220  A    between atoms: _526  and  _529
REMARK  221  A    between atoms: _529  and  _530
REMARK  222  A    between atoms: _535  and  _537
REMARK  223  A    between atoms: _537  and  _538
REMARK  224  A    between atoms: _537  and  _540
REMARK  225  A    between atoms: _543  and  _545
REMARK  226  A    between atoms: _545  and  _546
REMARK  227  A    between atoms: _545  and  _548
REMARK  228  A    between atoms: _548  and  _549
REMARK  229  A    between atoms: _552  and  _554
REMARK  230  A    between atoms: _554  and  _555
REMARK  231  A    between atoms: _557  and  _559
REMARK  232  A    between atoms: _559  and  _560
REMARK  233  A    between atoms: _559  and  _562
REMARK  234  A    between atoms: _562  and  _563
REMARK  235  A    between atoms: _563  and  _564
REMARK  236  A    between atoms: _564  and  _565
REMARK  237  A    between atoms: _574  and  _576
REMARK  238  A    between atoms: _576  and  _577
REMARK  239  A    between atoms: _576  and  _579
REMARK  240  A    between atoms: _579  and  _580
REMARK                            x       y       z     vdW  Elec       q    Type
REMARK                         _______ _______ _______ _____ _____    ______ ____
ROOT
ATOM      1  C   GLY A   5      18.631  24.048   4.348  0.00  0.00    +0.243 C 
ATOM      2  O   GLY A   5      18.746  23.188   5.223  0.00  0.00    -0.273 OA
ATOM      3  N   ALA A   6      18.485  23.747   3.064  0.00  0.00    -0.297 N 
ATOM      4  H   ALA A   6      18.411  24.515   2.366  0.00  0.00    +0.150 HD
ENDROOT
BRANCH   3   5
ATOM      5  CA  ALA A   6      18.426  22.364   2.612  0.00  0.00    +0.149 C 
ATOM      6  CB  ALA A   6      17.384  22.231   1.511  0.00  0.00    +0.031 C 
BRANCH   5   7
ATOM      7  C   ALA A   6      19.771  21.833   2.125  0.00  0.00    +0.241 C 
ATOM      8  N   ASP A   7      20.193  20.704   2.686  0.00  0.00    -0.297 N 
ATOM      9  H   ASP A   7      19.609  20.253   3.419  0.00  0.00    +0.150 HD
ATOM     10  O   ALA A   6      20.412  22.430   1.263  0.00  0.00    -0.273 OA
BRANCH   8  11
ATOM     11  CA  ASP A   7      21.460  20.080   2.298  0.00  0.00    +0.160 C 
BRANCH  11  12
ATOM     12  C   ASP A   7      21.384  19.552   0.875  0.00  0.00    +0.241 C 
ATOM     13  N   ASP A   8      20.259  18.911   0.579  0.00  0.00    -0.297 N 
ATOM     14  H   ASP A   8      19.516  18.852   1.305  0.00  0.00    +0.150 HD
ATOM     15  O   ASP A   7      22.320  19.710   0.079  0.00  0.00    -0.273 OA
BRANCH  13  16
ATOM     16  CA  ASP A   8      20.017  18.288  -0.712  0.00  0.00    +0.160 C 
BRANCH  16  17
ATOM     17  C   ASP A   8      18.877  18.924  -1.495  0.00  0.00    +0.241 C 
ATOM     18  O   ASP A   8      18.201  19.833  -1.016  0.00  0.00    -0.273 OA
ATOM     19  N   THR A   9      18.672  18.407  -2.702  0.00  0.00    -0.295 N 
ATOM     20  H   THR A   9      19.287  17.628  -3.013  0.00  0.00    +0.150 HD
BRANCH  19  21
ATOM     21  CA  THR A   9      17.634  18.869  -3.615  0.00  0.00    +0.176 C 
BRANCH  21  22
ATOM     22  C   THR A   9      16.577  17.778  -3.768  0.00  0.00    +0.243 C 
ATOM     23  N   VAL A  10      15.336  18.092  -3.412  0.00  0.00    -0.298 N 
ATOM     24  H   VAL A  10      15.129  19.044  -3.048  0.00  0.00    +0.150 HD
ATOM     25  O   THR A   9      16.884  16.661  -4.189  0.00  0.00    -0.273 OA
BRANCH  23  26
ATOM     26  CA  VAL A  10      14.262  17.113  -3.527  0.00  0.00    +0.137 C 
BRANCH  26  27
ATOM     27  CB  VAL A  10      13.778  16.622  -2.133  0.00  0.00    +0.026 C 
ATOM     28  CG2 VAL A  10      13.169  17.762  -1.348  0.00  0.00    +0.002 C 
ATOM     29  CG1 VAL A  10      12.773  15.491  -2.299  0.00  0.00    +0.002 C 
ENDBRANCH  26  27
BRANCH  26  30
ATOM     30  C   VAL A  10      13.086  17.669  -4.313  0.00  0.00    +0.227 C 
ATOM     31  O   VAL A  10      12.581  18.760  -4.035  0.00  0.00    -0.286 OA
ENDBRANCH  26  30
ENDBRANCH  23  26
ENDBRANCH  21  22
BRANCH  21  32
ATOM     32  CB  THR A   9      18.253  19.194  -4.998  0.00  0.00    +0.137 C 
ATOM     33  CG2 THR A   9      17.171  19.434  -6.050  0.00  0.00    +0.034 C 
BRANCH  32  34
ATOM     34  OG1 THR A   9      19.070  20.362  -4.881  0.00  0.00    -0.382 OA
ATOM     35  HG1 THR A   9      19.791  20.195  -4.223  0.00  0.00    +0.210 HD
ENDBRANCH  32  34
ENDBRANCH  21  32
ENDBRANCH  19  21
ENDBRANCH  16  17
BRANCH  16  36
ATOM     36  CB  ASP A   8      19.710  16.801  -0.505  0.00  0.00    +0.143 C 
BRANCH  36  37
ATOM     37  CG  ASP A   8      20.686  16.133   0.444  0.00  0.00    +0.367 C 
ATOM     38  OD2 ASP A   8      20.236  15.585   1.470  0.00  0.00    -0.246 OA
ATOM     39  OD1 ASP A   8      21.900  16.157   0.163  0.00  0.00    -0.246 OA
ENDBRANCH  36  37
ENDBRANCH  16  36
ENDBRANCH  13  16
ENDBRANCH  11  12
BRANCH  11  40
ATOM     40  CB  ASP A   7      21.773  18.892   3.205  0.00  0.00    +0.143 C 
BRANCH  40  41
ATOM     41  CG  ASP A   7      22.335  19.300   4.548  0.00  0.00    +0.367 C 
ATOM     42  OD2 ASP A   7      22.751  18.391   5.297  0.00  0.00    -0.246 OA
ATOM     43  OD1 ASP A   7      22.362  20.508   4.862  0.00  0.00    -0.246 OA
ENDBRANCH  40  41
ENDBRANCH  11  40
ENDBRANCH   8  11
ENDBRANCH   5   7
ENDBRANCH   3   5
BRANCH   1  44
ATOM     44  CA  GLY A   5      18.659  25.523   4.703  0.00  0.00    +0.176 C 
BRANCH  44  46
ATOM     45  C   THR A   4      19.949  26.635   2.994  0.00  0.00    +0.243 C 
ATOM     46  N   GLY A   5      18.766  26.386   3.540  0.00  0.00    -0.295 N 
ATOM     47  H   GLY A   5      17.909  26.812   3.132  0.00  0.00    +0.150 HD
ATOM     48  O   THR A   4      21.002  26.164   3.434  0.00  0.00    -0.273 OA
BRANCH  45  49
ATOM     49  CA  THR A   4      19.949  27.550   1.767  0.00  0.00    +0.176 C 
BRANCH  49  51
ATOM     50  C   ASP A   3      18.079  26.590   0.542  0.00  0.00    +0.241 C 
ATOM     51  N   THR A   4      18.622  27.640   1.155  0.00  0.00    -0.295 N 
ATOM     52  H   THR A   4      18.096  28.536   1.200  0.00  0.00    +0.150 HD
ATOM     53  O   ASP A   3      18.644  25.501   0.475  0.00  0.00    -0.273 OA
BRANCH  50  54
ATOM     54  CA  ASP A   3      16.685  26.769  -0.064  0.00  0.00    +0.160 C 
BRANCH  54  57
ATOM     55  C   LEU A   2      16.154  28.131  -2.029  0.00  0.00    +0.241 C 
ATOM     56  O   LEU A   2      15.776  29.084  -1.344  0.00  0.00    -0.273 OA
ATOM     57  N   ASP A   3      16.643  27.008  -1.508  0.00  0.00    -0.297 N 
ATOM     58  H   ASP A   3      17.008  26.275  -2.149  0.00  0.00    +0.150 HD
BRANCH  55  59
ATOM     59  CA  LEU A   2      16.088  28.189  -3.553  0.00  0.00    +0.149 C 
BRANCH  59  62
ATOM     60  C   LEU A   1      13.988  26.969  -3.733  0.00  0.00    +0.238 C 
ATOM     61  O   LEU A   1      14.520  25.916  -3.381  0.00  0.00    -0.274 OA
ATOM     62  N   LEU A   2      14.662  28.111  -3.861  0.00  0.00    -0.297 N 
ATOM     63  H   LEU A   2      14.163  28.964  -4.187  0.00  0.00    +0.150 HD
BRANCH  60  64
ATOM     64  CA  LEU A   1      12.488  27.010  -4.040  0.00  0.00    +0.145 C 
BRANCH  64  65
ATOM     65  N   LEU A   1      12.090  26.047  -5.062  0.00  0.00    -0.238 NA
ATOM     66  H   LEU A   1      11.985  25.049  -4.787  0.00  0.00    +0.142 HD
ENDBRANCH  64  65
BRANCH  64  67
ATOM     67  CB  LEU A   1      11.712  26.708  -2.753  0.00  0.00    +0.026 C 
BRANCH  67  68
ATOM     68  CG  LEU A   1      11.807  27.653  -1.557  0.00  0.00    +0.002 C 
ATOM     69  CD2 LEU A   1      11.243  26.958  -0.323  0.00  0.00    +0.000 C 
ATOM     70  CD1 LEU A   1      11.014  28.915  -1.848  0.00  0.00    +0.000 C 
ENDBRANCH  67  68
ENDBRANCH  64  67
ENDBRANCH  60  64
ENDBRANCH  59  62
BRANCH  59  71
ATOM     71  CB  LEU A   2      16.683  29.499  -4.077  0.00  0.00    +0.029 C 
BRANCH  71  72
ATOM     72  CG  LEU A   2      16.595  29.724  -5.592  0.00  0.00    +0.002 C 
ATOM     73  CD2 LEU A   2      17.419  30.949  -5.961  0.00  0.00    +0.000 C 
ATOM     74  CD1 LEU A   2      17.106  28.498  -6.341  0.00  0.00    +0.000 C 
ENDBRANCH  71  72
ENDBRANCH  59  71
ENDBRANCH  55  59
ENDBRANCH  54  57
BRANCH  54  75
ATOM     75  CB  ASP A   3      15.856  25.513   0.228  0.00  0.00    +0.143 C 
BRANCH  75  76
ATOM     76  CG  ASP A   3      15.350  25.456   1.651  0.00  0.00    +0.367 C 
ATOM     77  OD2 ASP A   3      16.024  25.990   2.556  0.00  0.00    -0.246 OA
ATOM     78  OD1 ASP A   3      14.274  24.858   1.860  0.00  0.00    -0.246 OA
ENDBRANCH  75  76
ENDBRANCH  54  75
ENDBRANCH  50  54
ENDBRANCH  49  51
BRANCH  49  79
ATOM     79  CB  THR A   4      20.469  28.934   2.199  0.00  0.00    +0.137 C 
ATOM     80  CG2 THR A   4      20.694  29.822   0.978  0.00  0.00    +0.034 C 
BRANCH  79  81
ATOM     81  OG1 THR A   4      19.523  29.549   3.082  0.00  0.00    -0.382 OA
ATOM     82  HG1 THR A   4      19.401  28.979   3.882  0.00  0.00    +0.210 HD
ENDBRANCH  79  81
ENDBRANCH  49  79
ENDBRANCH  45  49
ENDBRANCH  44  46
ENDBRANCH   1  44
TORSDOF 35
REMARK  Name = ../refined-set-2016/2wl0/2wl0_pocket.pdb
REMARK  240 active torsions:
REMARK  status: ('A' for Active; 'I' for Inactive)
REMARK    1  A    between atoms: _1  and  _3
REMARK    2  A    between atoms: _3  and  _4
REMARK    3  A    between atoms: _3  and  _6
REMARK    4  A    between atoms: _6  and  _7
REMARK    5  A    between atoms: _7  and  _8
REMARK    6  A    between atoms: _8  and  _9
REMARK    7  A    between atoms: _18  and  _20
REMARK    8  A    between atoms: _20  and  _21
REMARK    9  A    between atoms: _20  and  _23
REMARK   10  A    between atoms: _23  and  _24
REMARK   11  A    between atoms: _27  and  _29
REMARK   12  A    between atoms: _29  and  _30
REMARK   13  A    between atoms: _29  and  _32
REMARK   14  A    between atoms: _32  and  _33
REMARK   15  A    between atoms: _36  and  _38
REMARK   16  A    between atoms: _38  and  _39
REMARK   17  A    between atoms: _38  and  _41
REMARK   18  A    between atoms: _41  and  _42
REMARK   19  A    between atoms: _45  and  _47
REMARK   20  A    between atoms: _47  and  _48
REMARK   21  A    between atoms: _47  and  _50
REMARK   22  A    between atoms: _50  and  _51
REMARK   23  A    between atoms: _54  and  _56
REMARK   24  A    between atoms: _56  and  _57
REMARK   25  A    between atoms: _59  and  _61
REMARK   26  A    between atoms: _61  and  _62
REMARK   27  A    between atoms: _65  and  _67
REMARK   28  A    between atoms: _67  and  _68
REMARK   29  A    between atoms: _67  and  _70
REMARK   30  A    between atoms: _70  and  _71
REMARK   31  A    between atoms: _74  and  _76
REMARK   32  A    between atoms: _76  and  _77
REMARK   33  A    between atoms: _76  and  _79
REMARK   34  A    between atoms: _79  and  _80
REMARK   35  A    between atoms: _83  and  _85
REMARK   36  A    between atoms: _85  and  _86
REMARK   37  A    between atoms: _85  and  _88
REMARK   38  A    between atoms: _88  and  _89
REMARK   39  A    between atoms: _92  and  _94
REMARK   40  A    between atoms: _94  and  _95
REMARK   41  A    between atoms: _94  and  _97
REMARK   42  A    between atoms: _100  and  _102
REMARK   43  A    between atoms: _102  and  _103
REMARK   44  A    between atoms: _102  and  _105
REMARK   45  A    between atoms: _105  and  _106
REMARK   46  A    between atoms: _109  and  _111
REMARK   47  A    between atoms: _111  and  _112
REMARK   48  A    between atoms: _111  and  _114
REMARK   49  A    between atoms: _114  and  _115
REMARK   50  A    between atoms: _115  and  _116
REMARK   51  A    between atoms: _116  and  _117
REMARK   52  A    between atoms: _117  and  _118
REMARK   53  A    between atoms: _122  and  _124
REMARK   54  A    between atoms: _124  and  _125
REMARK   55  A    between atoms: _124  and  _127
REMARK   56  A    between atoms: _127  and  _128
REMARK   57  A    between atoms: _128  and  _129
REMARK   58  A    between atoms: _131  and  _133
REMARK   59  A    between atoms: _133  and  _134
REMARK   60  A    between atoms: _133  and  _136
REMARK   61  A    between atoms: _136  and  _137
REMARK   62  A    between atoms: _140  and  _142
REMARK   63  A    between atoms: _142  and  _143
REMARK   64  A    between atoms: _145  and  _147
REMARK   65  A    between atoms: _147  and  _148
REMARK   66  A    between atoms: _150  and  _152
REMARK   67  A    between atoms: _152  and  _153
REMARK   68  A    between atoms: _152  and  _155
REMARK   69  A    between atoms: _155  and  _156
REMARK   70  A    between atoms: _159  and  _161
REMARK   71  A    between atoms: _161  and  _162
REMARK   72  A    between atoms: _164  and  _166
REMARK   73  A    between atoms: _166  and  _167
REMARK   74  A    between atoms: _169  and  _171
REMARK   75  A    between atoms: _171  and  _172
REMARK   76  A    between atoms: _171  and  _174
REMARK   77  A    between atoms: _174  and  _175
REMARK   78  A    between atoms: _181  and  _183
REMARK   79  A    between atoms: _183  and  _184
REMARK   80  A    between atoms: _183  and  _186
REMARK   81  A    between atoms: _186  and  _187
REMARK   82  A    between atoms: _190  and  _192
REMARK   83  A    between atoms: _192  and  _193
REMARK   84  A    between atoms: _192  and  _195
REMARK   85  A    between atoms: _198  and  _200
REMARK   86  A    between atoms: _200  and  _201
REMARK   87  A    between atoms: _200  and  _203
REMARK   88  A    between atoms: _203  and  _204
REMARK   89  A    between atoms: _207  and  _209
REMARK   90  A    between atoms: _209  and  _210
REMARK   91  A    between atoms: _209  and  _212
REMARK   92  A    between atoms: _212  and  _213
REMARK   93  A    between atoms: _217  and  _218
REMARK   94  A    between atoms: _223  and  _225
REMARK   95  A    between atoms: _225  and  _226
REMARK   96  A    between atoms: _225  and  _228
REMARK   97  A    between atoms: _228  and  _229
REMARK   98  A    between atoms: _232  and  _234
REMARK   99  A    between atoms: _234  and  _235
REMARK  100  A    between atoms: _234  and  _237
REMARK  101  A    between atoms: _237  and  _238
REMARK  102  A    between atoms: _243  and  _245
REMARK  103  A    between atoms: _245  and  _246
REMARK  104  A    between atoms: _245  and  _248
REMARK  105  A    between atoms: _251  and  _253
REMARK  106  A    between atoms: _253  and  _254
REMARK  107  A    between atoms: _253  and  _256
REMARK  108  A    between atoms: _256  and  _257
REMARK  109  A    between atoms: _260  and  _262
REMARK  110  A    between atoms: _262  and  _263
REMARK  111  A    between atoms: _265  and  _267
REMARK  112  A    between atoms: _267  and  _268
REMARK  113  A    between atoms: _267  and  _270
REMARK  114  A    between atoms: _270  and  _271
REMARK  115  A    between atoms: _271  and  _272
REMARK  116  A    between atoms: _272  and  _273
REMARK  117  A    between atoms: _282  and  _284
REMARK  118  A    between atoms: _284  and  _285
REMARK  119  A    between atoms: _284  and  _287
REMARK  120  A    between atoms: _287  and  _288
REMARK  121  A    between atoms: _293  and  _295
REMARK  122  A    between atoms: _295  and  _296
REMARK  123  A    between atoms: _295  and  _298
REMARK  124  A    between atoms: _298  and  _299
REMARK  125  A    between atoms: _299  and  _300
REMARK  126  A    between atoms: _300  and  _301
REMARK  127  A    between atoms: _310  and  _312
REMARK  128  A    between atoms: _312  and  _313
REMARK  129  A    between atoms: _312  and  _315
REMARK  130  A    between atoms: _315  and  _316
REMARK  131  A    between atoms: _319  and  _321
REMARK  132  A    between atoms: _321  and  _322
REMARK  133  A    between atoms: _321  and  _324
REMARK  134  A    between atoms: _324  and  _325
REMARK  135  A    between atoms: _328  and  _330
REMARK  136  A    between atoms: _330  and  _331
REMARK  137  A    between atoms: _330  and  _333
REMARK  138  A    between atoms: _333  and  _334
REMARK  139  A    between atoms: _337  and  _339
REMARK  140  A    between atoms: _339  and  _340
REMARK  141  A    between atoms: _339  and  _342
REMARK  142  A    between atoms: _342  and  _343
REMARK  143  A    between atoms: _346  and  _348
REMARK  144  A    between atoms: _348  and  _349
REMARK  145  A    between atoms: _348  and  _351
REMARK  146  A    between atoms: _351  and  _352
REMARK  147  A    between atoms: _355  and  _357
REMARK  148  A    between atoms: _357  and  _358
REMARK  149  A    between atoms: _360  and  _362
REMARK  150  A    between atoms: _362  and  _363
REMARK  151  A    between atoms: _366  and  _368
REMARK  152  A    between atoms: _368  and  _369
REMARK  153  A    between atoms: _368  and  _371
REMARK  154  A    between atoms: _371  and  _372
REMARK  155  A    between atoms: _375  and  _377
REMARK  156  A    between atoms: _377  and  _378
REMARK  157  A    between atoms: _377  and  _380
REMARK  158  A    between atoms: _380  and  _381
REMARK  159  A    between atoms: _384  and  _386
REMARK  160  A    between atoms: _386  and  _387
REMARK  161  A    between atoms: _386  and  _389
REMARK  162  A    between atoms: _389  and  _390
REMARK  163  A    between atoms: _393  and  _395
REMARK  164  A    between atoms: _395  and  _396
REMARK  165  A    between atoms: _395  and  _398
REMARK  166  A    between atoms: _401  and  _403
REMARK  167  A    between atoms: _403  and  _404
REMARK  168  A    between atoms: _403  and  _406
REMARK  169  A    between atoms: _406  and  _407
REMARK  170  A    between atoms: _407  and  _408
REMARK  171  A    between atoms: _408  and  _409
REMARK  172  A    between atoms: _409  and  _410
REMARK  173  A    between atoms: _414  and  _416
REMARK  174  A    between atoms: _416  and  _417
REMARK  175  A    between atoms: _416  and  _419
REMARK  176  A    between atoms: _419  and  _420
REMARK  177  A    between atoms: _420  and  _421
REMARK  178  A    between atoms: _423  and  _425
REMARK  179  A    between atoms: _425  and  _426
REMARK  180  A    between atoms: _425  and  _428
REMARK  181  A    between atoms: _428  and  _429
REMARK  182  A    between atoms: _432  and  _434
REMARK  183  A    between atoms: _434  and  _435
REMARK  184  A    between atoms: _437  and  _439
REMARK  185  A    between atoms: _439  and  _440
REMARK  186  A    between atoms: _442  and  _444
REMARK  187  A    between atoms: _444  and  _445
REMARK  188  A    between atoms: _444  and  _447
REMARK  189  A    between atoms: _447  and  _448
REMARK  190  A    between atoms: _451  and  _453
REMARK  191  A    between atoms: _453  and  _454
REMARK  192  A    between atoms: _456  and  _458
REMARK  193  A    between atoms: _458  and  _459
REMARK  194  A    between atoms: _461  and  _463
REMARK  195  A    between atoms: _463  and  _464
REMARK  196  A    between atoms: _463  and  _466
REMARK  197  A    between atoms: _466  and  _467
REMARK  198  A    between atoms: _473  and  _475
REMARK  199  A    between atoms: _475  and  _476
REMARK  200  A    between atoms: _475  and  _478
REMARK  201  A    between atoms: _478  and  _479
REMARK  202  A    between atoms: _482  and  _484
REMARK  203  A    between atoms: _484  and  _485
REMARK  204  A    between atoms: _484  and  _487
REMARK  205  A    between atoms: _490  and  _492
REMARK  206  A    between atoms: _492  and  _493
REMARK  207  A    between atoms: _492  and  _495
REMARK  208  A    between atoms: _495  and  _496
REMARK  209  A    between atoms: _499  and  _501
REMARK  210  A    between atoms: _501  and  _502
REMARK  211  A    between atoms: _501  and  _504
REMARK  212  A    between atoms: _504  and  _505
REMARK  213  A    between atoms: _509  and  _510
REMARK  214  A    between atoms: _515  and  _517
REMARK  215  A    between atoms: _517  and  _518
REMARK  216  A    between atoms: _517  and  _520
REMARK  217  A    between atoms: _520  and  _521
REMARK  218  A    between atoms: _524  and  _526
REMARK  219  A    between atoms: _526  and  _527
REMARK  220  A    between atoms: _526  and  _529
REMARK  221  A    between atoms: _529  and  _530
REMARK  222  A    between atoms: _535  and  _537
REMARK  223  A    between atoms: _537  and  _538
REMARK  224  A    between atoms: _537  and  _540
REMARK  225  A    between atoms: _543  and  _545
REMARK  226  A    between atoms: _545  and  _546
REMARK  227  A    between atoms: _545  and  _548
REMARK  228  A    between atoms: _548  and  _549
REMARK  229  A    between atoms: _552  and  _554
REMARK  230  A    between atoms: _554  and  _555
REMARK  231  A    between atoms: _557  and  _559
REMARK  232  A    between atoms: _559  and  _560
REMARK  233  A    between atoms: _559  and  _562
REMARK  234  A    between atoms: _562  and  _563
REMARK  235  A    between atoms: _563  and  _564
REMARK  236  A    between atoms: _564  and  _565
REMARK  237  A    between atoms: _574  and  _576
REMARK  238  A    between atoms: _576  and  _577
REMARK  239  A    between atoms: _576  and  _579
REMARK  240  A    between atoms: _579  and  _580
REMARK                            x       y       z     vdW  Elec       q    Type
REMARK                         _______ _______ _______ _____ _____    ______ ____
ROOT
ATOM      1  C   GLY A   5      12.121  18.424   9.188  0.00  0.00    +0.243 C 
ATOM      2  O   GLY A   5      12.140  17.674  10.168  0.00  0.00    -0.273 OA
ATOM      3  N   ILE A   6      11.433  19.557   9.160  0.00  0.00    -0.297 N 
ATOM      4  H   ILE A   6      11.439  20.128   8.291  0.00  0.00    +0.150 HD
ENDROOT
BRANCH   3   5
ATOM      5  CA  ILE A   6      10.670  20.027  10.307  0.00  0.00    +0.149 C 
BRANCH   5   6
ATOM      6  C   ILE A   6       9.699  19.018  10.917  0.00  0.00    +0.241 C 
ATOM      7  O   ILE A   6       9.632  18.890  12.137  0.00  0.00    -0.273 OA
ATOM      8  N   GLY A   7       8.954  18.302  10.080  0.00  0.00    -0.295 N 
ATOM      9  H   GLY A   7       9.061  18.424   9.053  0.00  0.00    +0.150 HD
BRANCH   8  10
ATOM     10  CA  GLY A   7       7.989  17.347  10.604  0.00  0.00    +0.176 C 
BRANCH  10  11
ATOM     11  C   GLY A   7       8.444  15.908  10.762  0.00  0.00    +0.243 C 
ATOM     12  O   GLY A   7       7.673  15.060  11.222  0.00  0.00    -0.273 OA
ATOM     13  N   GLY A   8       9.689  15.627  10.397  0.00  0.00    -0.295 N 
ATOM     14  H   GLY A   8      10.303  16.384  10.034  0.00  0.00    +0.150 HD
BRANCH  13  15
ATOM     15  CA  GLY A   8      10.202  14.273  10.500  0.00  0.00    +0.176 C 
BRANCH  15  16
ATOM     16  C   GLY A   8      10.951  13.873   9.241  0.00  0.00    +0.243 C 
ATOM     17  N   PHE A   9      10.955  12.581   8.923  0.00  0.00    -0.297 N 
ATOM     18  H   PHE A   9      10.448  11.908   9.533  0.00  0.00    +0.150 HD
ATOM     19  O   GLY A   8      11.512  14.726   8.562  0.00  0.00    -0.273 OA
BRANCH  17  20
ATOM     20  CA  PHE A   9      11.653  12.082   7.739  0.00  0.00    +0.153 C 
BRANCH  20  21
ATOM     21  C   PHE A   9      10.722  11.491   6.684  0.00  0.00    +0.241 C 
ATOM     22  O   PHE A   9       9.587  11.110   6.973  0.00  0.00    -0.273 OA
ATOM     23  N   ILE A  10      11.228  11.419   5.455  0.00  0.00    -0.298 N 
ATOM     24  H   ILE A  10      12.181  11.799   5.285  0.00  0.00    +0.150 HD
BRANCH  23  25
ATOM     25  CA  ILE A  10      10.503  10.831   4.339  0.00  0.00    +0.137 C 
BRANCH  25  26
ATOM     26  C   ILE A  10      11.510  10.040   3.516  0.00  0.00    +0.227 C 
ATOM     27  O   ILE A  10      12.693  10.376   3.479  0.00  0.00    -0.286 OA
ENDBRANCH  25  26
BRANCH  25  28
ATOM     28  CB  ILE A  10       9.853  11.892   3.416  0.00  0.00    +0.026 C 
ATOM     29  CG2 ILE A  10       8.876  12.745   4.205  0.00  0.00    +0.002 C 
BRANCH  28  30
ATOM     30  CG1 ILE A  10      10.932  12.761   2.767  0.00  0.00    +0.002 C 
ATOM     31  CD1 ILE A  10      10.400  13.691   1.698  0.00  0.00    +0.000 C 
ENDBRANCH  28  30
ENDBRANCH  25  28
ENDBRANCH  23  25
ENDBRANCH  20  21
BRANCH  20  32
ATOM     32  CB  PHE A   9      12.663  10.992   8.119  0.00  0.00    +0.055 C 
BRANCH  32  33
ATOM     33  CG  PHE A   9      13.862  11.489   8.877  0.00  0.00    -0.020 A 
ATOM     34  CD2 PHE A   9      13.733  11.977  10.175  0.00  0.00    -0.004 A 
ATOM     35  CE2 PHE A   9      14.852  12.401  10.892  0.00  0.00    -0.000 A 
ATOM     36  CZ  PHE A   9      16.115  12.344  10.306  0.00  0.00    -0.000 A 
ATOM     37  CE1 PHE A   9      16.255  11.860   9.006  0.00  0.00    -0.000 A 
ATOM     38  CD1 PHE A   9      15.129  11.438   8.300  0.00  0.00    -0.004 A 
ENDBRANCH  32  33
ENDBRANCH  20  32
ENDBRANCH  17  20
ENDBRANCH  15  16
ENDBRANCH  13  15
ENDBRANCH  10  11
ENDBRANCH   8  10
ENDBRANCH   5   6
BRANCH   5  39
ATOM     39  CB  ILE A   6       9.892  21.310   9.946  0.00  0.00    +0.027 C 
ATOM     40  CG2 ILE A   6       9.014  21.743  11.107  0.00  0.00    +0.002 C 
BRANCH  39  41
ATOM     41  CG1 ILE A   6      10.878  22.417   9.573  0.00  0.00    +0.002 C 
ATOM     42  CD1 ILE A   6      11.953  22.656  10.612  0.00  0.00    +0.000 C 
ENDBRANCH  39  41
ENDBRANCH   5  39
ENDBRANCH   3   5
BRANCH   1  43
ATOM     43  CA  GLY A   5      12.881  18.081   7.920  0.00  0.00    +0.176 C 
BRANCH  43  45
ATOM     44  C   GLY A   4      14.476  16.291   7.575  0.00  0.00    +0.243 C 
ATOM     45  N   GLY A   5      13.249  16.683   7.900  0.00  0.00    -0.295 N 
ATOM     46  H   GLY A   5      12.536  15.967   8.146  0.00  0.00    +0.150 HD
ATOM     47  O   GLY A   4      15.377  17.066   7.259  0.00  0.00    -0.273 OA
BRANCH  44  48
ATOM     48  CA  GLY A   4      14.703  14.798   7.621  0.00  0.00    +0.176 C 
BRANCH  48  50
ATOM     49  C   ILE A   3      14.963  13.514   5.597  0.00  0.00    +0.241 C 
ATOM     50  N   GLY A   4      15.514  14.267   6.542  0.00  0.00    -0.295 N 
ATOM     51  H   GLY A   4      16.532  14.477   6.508  0.00  0.00    +0.150 HD
ATOM     52  O   ILE A   3      13.764  13.237   5.570  0.00  0.00    -0.273 OA
BRANCH  49  53
ATOM     53  CA  ILE A   3      15.911  12.983   4.528  0.00  0.00    +0.149 C 
BRANCH  53  56
ATOM     54  C   MET A   2      16.487  10.634   4.451  0.00  0.00    +0.241 C 
ATOM     55  O   MET A   2      17.637  10.869   4.820  0.00  0.00    -0.273 OA
ATOM     56  N   ILE A   3      15.584  11.589   4.258  0.00  0.00    -0.297 N 
ATOM     57  H   ILE A   3      14.636  11.340   3.911  0.00  0.00    +0.150 HD
BRANCH  54  58
ATOM     58  CA  MET A   2      16.052   9.203   4.168  0.00  0.00    +0.149 C 
BRANCH  58  60
ATOM     59  C   LYS A   1      16.645   8.314   1.963  0.00  0.00    +0.238 C 
ATOM     60  N   MET A   2      16.994   8.681   3.188  0.00  0.00    -0.297 N 
ATOM     61  H   MET A   2      17.993   8.591   3.464  0.00  0.00    +0.150 HD
ATOM     62  O   LYS A   1      15.491   8.333   1.548  0.00  0.00    -0.274 OA
BRANCH  59  63
ATOM     63  CA  LYS A   1      17.785   7.824   1.090  0.00  0.00    +0.145 C 
BRANCH  63  64
ATOM     64  N   LYS A   1      17.322   6.790   0.180  0.00  0.00    -0.238 NA
ATOM     65  H   LYS A   1      16.316   6.750  -0.080  0.00  0.00    +0.142 HD
ENDBRANCH  63  64
BRANCH  63  66
ATOM     66  CB  LYS A   1      18.408   9.018   0.353  0.00  0.00    +0.026 C 
BRANCH  66  67
ATOM     67  CG  LYS A   1      18.957  10.051   1.338  0.00  0.00    -0.000 C 
BRANCH  67  68
ATOM     68  CD  LYS A   1      19.959  11.009   0.744  0.00  0.00    -0.024 C 
BRANCH  68  69
ATOM     69  CE  LYS A   1      20.696  11.731   1.869  0.00  0.00    -0.086 C 
BRANCH  69  70
ATOM     70  NZ  LYS A   1      21.725  12.684   1.394  0.00  0.00    +0.380 N 
ATOM     71  HZ1 LYS A   1      22.182  13.135   2.212  0.00  0.00    -0.089 HD
ATOM     72  HZ2 LYS A   1      22.438  12.173   0.835  0.00  0.00    -0.089 HD
ATOM     73  HZ3 LYS A   1      21.275  13.411   0.802  0.00  0.00    -0.089 HD
ENDBRANCH  69  70
ENDBRANCH  68  69
ENDBRANCH  67  68
ENDBRANCH  66  67
ENDBRANCH  63  66
ENDBRANCH  59  63
ENDBRANCH  58  60
BRANCH  58  74
ATOM     74  CB  MET A   2      16.131   8.390   5.461  0.00  0.00    +0.041 C 
BRANCH  74  75
ATOM     75  CG  MET A   2      15.308   7.120   5.472  0.00  0.00    +0.060 C 
BRANCH  75  76
ATOM     76  SD  MET A   2      13.596   7.465   5.921  0.00  0.00    -0.139 S 
ATOM     77  CE  MET A   2      13.733   7.471   7.712  0.00  0.00    +0.069 C 
ENDBRANCH  75  76
ENDBRANCH  74  75
ENDBRANCH  58  74
ENDBRANCH  54  58
ENDBRANCH  53  56
BRANCH  53  78
ATOM     78  CB  ILE A   3      15.814  13.857   3.258  0.00  0.00    +0.027 C 
ATOM     79  CG2 ILE A   3      16.870  13.410   2.246  0.00  0.00    +0.002 C 
BRANCH  78  80
ATOM     80  CG1 ILE A   3      14.408  13.781   2.659  0.00  0.00    +0.002 C 
ATOM     81  CD1 ILE A   3      14.220  14.659   1.428  0.00  0.00    +0.000 C 
ENDBRANCH  78  80
ENDBRANCH  53  78
ENDBRANCH  49  53
ENDBRANCH  48  50
ENDBRANCH  44  48
ENDBRANCH  43  45
ENDBRANCH   1  43
TORSDOF 36
REMARK  Name = ../refined-set-2016/2wl0/2wl0_pocket.pdb
REMARK  240 active torsions:
REMARK  status: ('A' for Active; 'I' for Inactive)
REMARK    1  A    between atoms: _1  and  _3
REMARK    2  A    between atoms: _3  and  _4
REMARK    3  A    between atoms: _3  and  _6
REMARK    4  A    between atoms: _6  and  _7
REMARK    5  A    between atoms: _7  and  _8
REMARK    6  A    between atoms: _8  and  _9
REMARK    7  A    between atoms: _18  and  _20
REMARK    8  A    between atoms: _20  and  _21
REMARK    9  A    between atoms: _20  and  _23
REMARK   10  A    between atoms: _23  and  _24
REMARK   11  A    between atoms: _27  and  _29
REMARK   12  A    between atoms: _29  and  _30
REMARK   13  A    between atoms: _29  and  _32
REMARK   14  A    between atoms: _32  and  _33
REMARK   15  A    between atoms: _36  and  _38
REMARK   16  A    between atoms: _38  and  _39
REMARK   17  A    between atoms: _38  and  _41
REMARK   18  A    between atoms: _41  and  _42
REMARK   19  A    between atoms: _45  and  _47
REMARK   20  A    between atoms: _47  and  _48
REMARK   21  A    between atoms: _47  and  _50
REMARK   22  A    between atoms: _50  and  _51
REMARK   23  A    between atoms: _54  and  _56
REMARK   24  A    between atoms: _56  and  _57
REMARK   25  A    between atoms: _59  and  _61
REMARK   26  A    between atoms: _61  and  _62
REMARK   27  A    between atoms: _65  and  _67
REMARK   28  A    between atoms: _67  and  _68
REMARK   29  A    between atoms: _67  and  _70
REMARK   30  A    between atoms: _70  and  _71
REMARK   31  A    between atoms: _74  and  _76
REMARK   32  A    between atoms: _76  and  _77
REMARK   33  A    between atoms: _76  and  _79
REMARK   34  A    between atoms: _79  and  _80
REMARK   35  A    between atoms: _83  and  _85
REMARK   36  A    between atoms: _85  and  _86
REMARK   37  A    between atoms: _85  and  _88
REMARK   38  A    between atoms: _88  and  _89
REMARK   39  A    between atoms: _92  and  _94
REMARK   40  A    between atoms: _94  and  _95
REMARK   41  A    between atoms: _94  and  _97
REMARK   42  A    between atoms: _100  and  _102
REMARK   43  A    between atoms: _102  and  _103
REMARK   44  A    between atoms: _102  and  _105
REMARK   45  A    between atoms: _105  and  _106
REMARK   46  A    between atoms: _109  and  _111
REMARK   47  A    between atoms: _111  and  _112
REMARK   48  A    between atoms: _111  and  _114
REMARK   49  A    between atoms: _114  and  _115
REMARK   50  A    between atoms: _115  and  _116
REMARK   51  A    between atoms: _116  and  _117
REMARK   52  A    between atoms: _117  and  _118
REMARK   53  A    between atoms: _122  and  _124
REMARK   54  A    between atoms: _124  and  _125
REMARK   55  A    between atoms: _124  and  _127
REMARK   56  A    between atoms: _127  and  _128
REMARK   57  A    between atoms: _128  and  _129
REMARK   58  A    between atoms: _131  and  _133
REMARK   59  A    between atoms: _133  and  _134
REMARK   60  A    between atoms: _133  and  _136
REMARK   61  A    between atoms: _136  and  _137
REMARK   62  A    between atoms: _140  and  _142
REMARK   63  A    between atoms: _142  and  _143
REMARK   64  A    between atoms: _145  and  _147
REMARK   65  A    between atoms: _147  and  _148
REMARK   66  A    between atoms: _150  and  _152
REMARK   67  A    between atoms: _152  and  _153
REMARK   68  A    between atoms: _152  and  _155
REMARK   69  A    between atoms: _155  and  _156
REMARK   70  A    between atoms: _159  and  _161
REMARK   71  A    between atoms: _161  and  _162
REMARK   72  A    between atoms: _164  and  _166
REMARK   73  A    between atoms: _166  and  _167
REMARK   74  A    between atoms: _169  and  _171
REMARK   75  A    between atoms: _171  and  _172
REMARK   76  A    between atoms: _171  and  _174
REMARK   77  A    between atoms: _174  and  _175
REMARK   78  A    between atoms: _181  and  _183
REMARK   79  A    between atoms: _183  and  _184
REMARK   80  A    between atoms: _183  and  _186
REMARK   81  A    between atoms: _186  and  _187
REMARK   82  A    between atoms: _190  and  _192
REMARK   83  A    between atoms: _192  and  _193
REMARK   84  A    between atoms: _192  and  _195
REMARK   85  A    between atoms: _198  and  _200
REMARK   86  A    between atoms: _200  and  _201
REMARK   87  A    between atoms: _200  and  _203
REMARK   88  A    between atoms: _203  and  _204
REMARK   89  A    between atoms: _207  and  _209
REMARK   90  A    between atoms: _209  and  _210
REMARK   91  A    between atoms: _209  and  _212
REMARK   92  A    between atoms: _212  and  _213
REMARK   93  A    between atoms: _217  and  _218
REMARK   94  A    between atoms: _223  and  _225
REMARK   95  A    between atoms: _225  and  _226
REMARK   96  A    between atoms: _225  and  _228
REMARK   97  A    between atoms: _228  and  _229
REMARK   98  A    between atoms: _232  and  _234
REMARK   99  A    between atoms: _234  and  _235
REMARK  100  A    between atoms: _234  and  _237
REMARK  101  A    between atoms: _237  and  _238
REMARK  102  A    between atoms: _243  and  _245
REMARK  103  A    between atoms: _245  and  _246
REMARK  104  A    between atoms: _245  and  _248
REMARK  105  A    between atoms: _251  and  _253
REMARK  106  A    between atoms: _253  and  _254
REMARK  107  A    between atoms: _253  and  _256
REMARK  108  A    between atoms: _256  and  _257
REMARK  109  A    between atoms: _260  and  _262
REMARK  110  A    between atoms: _262  and  _263
REMARK  111  A    between atoms: _265  and  _267
REMARK  112  A    between atoms: _267  and  _268
REMARK  113  A    between atoms: _267  and  _270
REMARK  114  A    between atoms: _270  and  _271
REMARK  115  A    between atoms: _271  and  _272
REMARK  116  A    between atoms: _272  and  _273
REMARK  117  A    between atoms: _282  and  _284
REMARK  118  A    between atoms: _284  and  _285
REMARK  119  A    between atoms: _284  and  _287
REMARK  120  A    between atoms: _287  and  _288
REMARK  121  A    between atoms: _293  and  _295
REMARK  122  A    between atoms: _295  and  _296
REMARK  123  A    between atoms: _295  and  _298
REMARK  124  A    between atoms: _298  and  _299
REMARK  125  A    between atoms: _299  and  _300
REMARK  126  A    between atoms: _300  and  _301
REMARK  127  A    between atoms: _310  and  _312
REMARK  128  A    between atoms: _312  and  _313
REMARK  129  A    between atoms: _312  and  _315
REMARK  130  A    between atoms: _315  and  _316
REMARK  131  A    between atoms: _319  and  _321
REMARK  132  A    between atoms: _321  and  _322
REMARK  133  A    between atoms: _321  and  _324
REMARK  134  A    between atoms: _324  and  _325
REMARK  135  A    between atoms: _328  and  _330
REMARK  136  A    between atoms: _330  and  _331
REMARK  137  A    between atoms: _330  and  _333
REMARK  138  A    between atoms: _333  and  _334
REMARK  139  A    between atoms: _337  and  _339
REMARK  140  A    between atoms: _339  and  _340
REMARK  141  A    between atoms: _339  and  _342
REMARK  142  A    between atoms: _342  and  _343
REMARK  143  A    between atoms: _346  and  _348
REMARK  144  A    between atoms: _348  and  _349
REMARK  145  A    between atoms: _348  and  _351
REMARK  146  A    between atoms: _351  and  _352
REMARK  147  A    between atoms: _355  and  _357
REMARK  148  A    between atoms: _357  and  _358
REMARK  149  A    between atoms: _360  and  _362
REMARK  150  A    between atoms: _362  and  _363
REMARK  151  A    between atoms: _366  and  _368
REMARK  152  A    between atoms: _368  and  _369
REMARK  153  A    between atoms: _368  and  _371
REMARK  154  A    between atoms: _371  and  _372
REMARK  155  A    between atoms: _375  and  _377
REMARK  156  A    between atoms: _377  and  _378
REMARK  157  A    between atoms: _377  and  _380
REMARK  158  A    between atoms: _380  and  _381
REMARK  159  A    between atoms: _384  and  _386
REMARK  160  A    between atoms: _386  and  _387
REMARK  161  A    between atoms: _386  and  _389
REMARK  162  A    between atoms: _389  and  _390
REMARK  163  A    between atoms: _393  and  _395
REMARK  164  A    between atoms: _395  and  _396
REMARK  165  A    between atoms: _395  and  _398
REMARK  166  A    between atoms: _401  and  _403
REMARK  167  A    between atoms: _403  and  _404
REMARK  168  A    between atoms: _403  and  _406
REMARK  169  A    between atoms: _406  and  _407
REMARK  170  A    between atoms: _407  and  _408
REMARK  171  A    between atoms: _408  and  _409
REMARK  172  A    between atoms: _409  and  _410
REMARK  173  A    between atoms: _414  and  _416
REMARK  174  A    between atoms: _416  and  _417
REMARK  175  A    between atoms: _416  and  _419
REMARK  176  A    between atoms: _419  and  _420
REMARK  177  A    between atoms: _420  and  _421
REMARK  178  A    between atoms: _423  and  _425
REMARK  179  A    between atoms: _425  and  _426
REMARK  180  A    between atoms: _425  and  _428
REMARK  181  A    between atoms: _428  and  _429
REMARK  182  A    between atoms: _432  and  _434
REMARK  183  A    between atoms: _434  and  _435
REMARK  184  A    between atoms: _437  and  _439
REMARK  185  A    between atoms: _439  and  _440
REMARK  186  A    between atoms: _442  and  _444
REMARK  187  A    between atoms: _444  and  _445
REMARK  188  A    between atoms: _444  and  _447
REMARK  189  A    between atoms: _447  and  _448
REMARK  190  A    between atoms: _451  and  _453
REMARK  191  A    between atoms: _453  and  _454
REMARK  192  A    between atoms: _456  and  _458
REMARK  193  A    between atoms: _458  and  _459
REMARK  194  A    between atoms: _461  and  _463
REMARK  195  A    between atoms: _463  and  _464
REMARK  196  A    between atoms: _463  and  _466
REMARK  197  A    between atoms: _466  and  _467
REMARK  198  A    between atoms: _473  and  _475
REMARK  199  A    between atoms: _475  and  _476
REMARK  200  A    between atoms: _475  and  _478
REMARK  201  A    between atoms: _478  and  _479
REMARK  202  A    between atoms: _482  and  _484
REMARK  203  A    between atoms: _484  and  _485
REMARK  204  A    between atoms: _484  and  _487
REMARK  205  A    between atoms: _490  and  _492
REMARK  206  A    between atoms: _492  and  _493
REMARK  207  A    between atoms: _492  and  _495
REMARK  208  A    between atoms: _495  and  _496
REMARK  209  A    between atoms: _499  and  _501
REMARK  210  A    between atoms: _501  and  _502
REMARK  211  A    between atoms: _501  and  _504
REMARK  212  A    between atoms: _504  and  _505
REMARK  213  A    between atoms: _509  and  _510
REMARK  214  A    between atoms: _515  and  _517
REMARK  215  A    between atoms: _517  and  _518
REMARK  216  A    between atoms: _517  and  _520
REMARK  217  A    between atoms: _520  and  _521
REMARK  218  A    between atoms: _524  and  _526
REMARK  219  A    between atoms: _526  and  _527
REMARK  220  A    between atoms: _526  and  _529
REMARK  221  A    between atoms: _529  and  _530
REMARK  222  A    between atoms: _535  and  _537
REMARK  223  A    between atoms: _537  and  _538
REMARK  224  A    between atoms: _537  and  _540
REMARK  225  A    between atoms: _543  and  _545
REMARK  226  A    between atoms: _545  and  _546
REMARK  227  A    between atoms: _545  and  _548
REMARK  228  A    between atoms: _548  and  _549
REMARK  229  A    between atoms: _552  and  _554
REMARK  230  A    between atoms: _554  and  _555
REMARK  231  A    between atoms: _557  and  _559
REMARK  232  A    between atoms: _559  and  _560
REMARK  233  A    between atoms: _559  and  _562
REMARK  234  A    between atoms: _562  and  _563
REMARK  235  A    between atoms: _563  and  _564
REMARK  236  A    between atoms: _564  and  _565
REMARK  237  A    between atoms: _574  and  _576
REMARK  238  A    between atoms: _576  and  _577
REMARK  239  A    between atoms: _576  and  _579
REMARK  240  A    between atoms: _579  and  _580
REMARK                            x       y       z     vdW  Elec       q    Type
REMARK                         _______ _______ _______ _____ _____    ______ ____
ROOT
ATOM      1  CA  VAL A   1      13.142   9.349  -1.350  0.00  0.00    +0.133 C 
ENDROOT
BRANCH   1   2
ATOM      2  CB  VAL A   1      13.716  10.784  -1.318  0.00  0.00    +0.023 C 
ATOM      3  CG2 VAL A   1      12.784  11.700  -0.545  0.00  0.00    +0.002 C 
ATOM      4  CG1 VAL A   1      15.097  10.779  -0.690  0.00  0.00    +0.002 C 
ENDBRANCH   1   2
BRANCH   1   5
ATOM      5  N   VAL A   1      13.049   8.795  -0.002  0.00  0.00    -0.239 NA
ATOM      6  H   VAL A   1      13.907   8.448   0.472  0.00  0.00    +0.142 HD
ENDBRANCH   1   5
BRANCH   1   7
ATOM      7  C   VAL A   1      14.024   8.492  -2.255  0.00  0.00    +0.224 C 
ATOM      8  O   VAL A   1      14.731   7.604  -1.784  0.00  0.00    -0.287 OA
ENDBRANCH   1   7
TORSDOF 3
REMARK  Name = ../refined-set-2016/2wl0/2wl0_pocket.pdb
REMARK  240 active torsions:
REMARK  status: ('A' for Active; 'I' for Inactive)
REMARK    1  A    between atoms: _1  and  _3
REMARK    2  A    between atoms: _3  and  _4
REMARK    3  A    between atoms: _3  and  _6
REMARK    4  A    between atoms: _6  and  _7
REMARK    5  A    between atoms: _7  and  _8
REMARK    6  A    between atoms: _8  and  _9
REMARK    7  A    between atoms: _18  and  _20
REMARK    8  A    between atoms: _20  and  _21
REMARK    9  A    between atoms: _20  and  _23
REMARK   10  A    between atoms: _23  and  _24
REMARK   11  A    between atoms: _27  and  _29
REMARK   12  A    between atoms: _29  and  _30
REMARK   13  A    between atoms: _29  and  _32
REMARK   14  A    between atoms: _32  and  _33
REMARK   15  A    between atoms: _36  and  _38
REMARK   16  A    between atoms: _38  and  _39
REMARK   17  A    between atoms: _38  and  _41
REMARK   18  A    between atoms: _41  and  _42
REMARK   19  A    between atoms: _45  and  _47
REMARK   20  A    between atoms: _47  and  _48
REMARK   21  A    between atoms: _47  and  _50
REMARK   22  A    between atoms: _50  and  _51
REMARK   23  A    between atoms: _54  and  _56
REMARK   24  A    between atoms: _56  and  _57
REMARK   25  A    between atoms: _59  and  _61
REMARK   26  A    between atoms: _61  and  _62
REMARK   27  A    between atoms: _65  and  _67
REMARK   28  A    between atoms: _67  and  _68
REMARK   29  A    between atoms: _67  and  _70
REMARK   30  A    between atoms: _70  and  _71
REMARK   31  A    between atoms: _74  and  _76
REMARK   32  A    between atoms: _76  and  _77
REMARK   33  A    between atoms: _76  and  _79
REMARK   34  A    between atoms: _79  and  _80
REMARK   35  A    between atoms: _83  and  _85
REMARK   36  A    between atoms: _85  and  _86
REMARK   37  A    between atoms: _85  and  _88
REMARK   38  A    between atoms: _88  and  _89
REMARK   39  A    between atoms: _92  and  _94
REMARK   40  A    between atoms: _94  and  _95
REMARK   41  A    between atoms: _94  and  _97
REMARK   42  A    between atoms: _100  and  _102
REMARK   43  A    between atoms: _102  and  _103
REMARK   44  A    between atoms: _102  and  _105
REMARK   45  A    between atoms: _105  and  _106
REMARK   46  A    between atoms: _109  and  _111
REMARK   47  A    between atoms: _111  and  _112
REMARK   48  A    between atoms: _111  and  _114
REMARK   49  A    between atoms: _114  and  _115
REMARK   50  A    between atoms: _115  and  _116
REMARK   51  A    between atoms: _116  and  _117
REMARK   52  A    between atoms: _117  and  _118
REMARK   53  A    between atoms: _122  and  _124
REMARK   54  A    between atoms: _124  and  _125
REMARK   55  A    between atoms: _124  and  _127
REMARK   56  A    between atoms: _127  and  _128
REMARK   57  A    between atoms: _128  and  _129
REMARK   58  A    between atoms: _131  and  _133
REMARK   59  A    between atoms: _133  and  _134
REMARK   60  A    between atoms: _133  and  _136
REMARK   61  A    between atoms: _136  and  _137
REMARK   62  A    between atoms: _140  and  _142
REMARK   63  A    between atoms: _142  and  _143
REMARK   64  A    between atoms: _145  and  _147
REMARK   65  A    between atoms: _147  and  _148
REMARK   66  A    between atoms: _150  and  _152
REMARK   67  A    between atoms: _152  and  _153
REMARK   68  A    between atoms: _152  and  _155
REMARK   69  A    between atoms: _155  and  _156
REMARK   70  A    between atoms: _159  and  _161
REMARK   71  A    between atoms: _161  and  _162
REMARK   72  A    between atoms: _164  and  _166
REMARK   73  A    between atoms: _166  and  _167
REMARK   74  A    between atoms: _169  and  _171
REMARK   75  A    between atoms: _171  and  _172
REMARK   76  A    between atoms: _171  and  _174
REMARK   77  A    between atoms: _174  and  _175
REMARK   78  A    between atoms: _181  and  _183
REMARK   79  A    between atoms: _183  and  _184
REMARK   80  A    between atoms: _183  and  _186
REMARK   81  A    between atoms: _186  and  _187
REMARK   82  A    between atoms: _190  and  _192
REMARK   83  A    between atoms: _192  and  _193
REMARK   84  A    between atoms: _192  and  _195
REMARK   85  A    between atoms: _198  and  _200
REMARK   86  A    between atoms: _200  and  _201
REMARK   87  A    between atoms: _200  and  _203
REMARK   88  A    between atoms: _203  and  _204
REMARK   89  A    between atoms: _207  and  _209
REMARK   90  A    between atoms: _209  and  _210
REMARK   91  A    between atoms: _209  and  _212
REMARK   92  A    between atoms: _212  and  _213
REMARK   93  A    between atoms: _217  and  _218
REMARK   94  A    between atoms: _223  and  _225
REMARK   95  A    between atoms: _225  and  _226
REMARK   96  A    between atoms: _225  and  _228
REMARK   97  A    between atoms: _228  and  _229
REMARK   98  A    between atoms: _232  and  _234
REMARK   99  A    between atoms: _234  and  _235
REMARK  100  A    between atoms: _234  and  _237
REMARK  101  A    between atoms: _237  and  _238
REMARK  102  A    between atoms: _243  and  _245
REMARK  103  A    between atoms: _245  and  _246
REMARK  104  A    between atoms: _245  and  _248
REMARK  105  A    between atoms: _251  and  _253
REMARK  106  A    between atoms: _253  and  _254
REMARK  107  A    between atoms: _253  and  _256
REMARK  108  A    between atoms: _256  and  _257
REMARK  109  A    between atoms: _260  and  _262
REMARK  110  A    between atoms: _262  and  _263
REMARK  111  A    between atoms: _265  and  _267
REMARK  112  A    between atoms: _267  and  _268
REMARK  113  A    between atoms: _267  and  _270
REMARK  114  A    between atoms: _270  and  _271
REMARK  115  A    between atoms: _271  and  _272
REMARK  116  A    between atoms: _272  and  _273
REMARK  117  A    between atoms: _282  and  _284
REMARK  118  A    between atoms: _284  and  _285
REMARK  119  A    between atoms: _284  and  _287
REMARK  120  A    between atoms: _287  and  _288
REMARK  121  A    between atoms: _293  and  _295
REMARK  122  A    between atoms: _295  and  _296
REMARK  123  A    between atoms: _295  and  _298
REMARK  124  A    between atoms: _298  and  _299
REMARK  125  A    between atoms: _299  and  _300
REMARK  126  A    between atoms: _300  and  _301
REMARK  127  A    between atoms: _310  and  _312
REMARK  128  A    between atoms: _312  and  _313
REMARK  129  A    between atoms: _312  and  _315
REMARK  130  A    between atoms: _315  and  _316
REMARK  131  A    between atoms: _319  and  _321
REMARK  132  A    between atoms: _321  and  _322
REMARK  133  A    between atoms: _321  and  _324
REMARK  134  A    between atoms: _324  and  _325
REMARK  135  A    between atoms: _328  and  _330
REMARK  136  A    between atoms: _330  and  _331
REMARK  137  A    between atoms: _330  and  _333
REMARK  138  A    between atoms: _333  and  _334
REMARK  139  A    between atoms: _337  and  _339
REMARK  140  A    between atoms: _339  and  _340
REMARK  141  A    between atoms: _339  and  _342
REMARK  142  A    between atoms: _342  and  _343
REMARK  143  A    between atoms: _346  and  _348
REMARK  144  A    between atoms: _348  and  _349
REMARK  145  A    between atoms: _348  and  _351
REMARK  146  A    between atoms: _351  and  _352
REMARK  147  A    between atoms: _355  and  _357
REMARK  148  A    between atoms: _357  and  _358
REMARK  149  A    between atoms: _360  and  _362
REMARK  150  A    between atoms: _362  and  _363
REMARK  151  A    between atoms: _366  and  _368
REMARK  152  A    between atoms: _368  and  _369
REMARK  153  A    between atoms: _368  and  _371
REMARK  154  A    between atoms: _371  and  _372
REMARK  155  A    between atoms: _375  and  _377
REMARK  156  A    between atoms: _377  and  _378
REMARK  157  A    between atoms: _377  and  _380
REMARK  158  A    between atoms: _380  and  _381
REMARK  159  A    between atoms: _384  and  _386
REMARK  160  A    between atoms: _386  and  _387
REMARK  161  A    between atoms: _386  and  _389
REMARK  162  A    between atoms: _389  and  _390
REMARK  163  A    between atoms: _393  and  _395
REMARK  164  A    between atoms: _395  and  _396
REMARK  165  A    between atoms: _395  and  _398
REMARK  166  A    between atoms: _401  and  _403
REMARK  167  A    between atoms: _403  and  _404
REMARK  168  A    between atoms: _403  and  _406
REMARK  169  A    between atoms: _406  and  _407
REMARK  170  A    between atoms: _407  and  _408
REMARK  171  A    between atoms: _408  and  _409
REMARK  172  A    between atoms: _409  and  _410
REMARK  173  A    between atoms: _414  and  _416
REMARK  174  A    between atoms: _416  and  _417
REMARK  175  A    between atoms: _416  and  _419
REMARK  176  A    between atoms: _419  and  _420
REMARK  177  A    between atoms: _420  and  _421
REMARK  178  A    between atoms: _423  and  _425
REMARK  179  A    between atoms: _425  and  _426
REMARK  180  A    between atoms: _425  and  _428
REMARK  181  A    between atoms: _428  and  _429
REMARK  182  A    between atoms: _432  and  _434
REMARK  183  A    between atoms: _434  and  _435
REMARK  184  A    between atoms: _437  and  _439
REMARK  185  A    between atoms: _439  and  _440
REMARK  186  A    between atoms: _442  and  _444
REMARK  187  A    between atoms: _444  and  _445
REMARK  188  A    between atoms: _444  and  _447
REMARK  189  A    between atoms: _447  and  _448
REMARK  190  A    between atoms: _451  and  _453
REMARK  191  A    between atoms: _453  and  _454
REMARK  192  A    between atoms: _456  and  _458
REMARK  193  A    between atoms: _458  and  _459
REMARK  194  A    between atoms: _461  and  _463
REMARK  195  A    between atoms: _463  and  _464
REMARK  196  A    between atoms: _463  and  _466
REMARK  197  A    between atoms: _466  and  _467
REMARK  198  A    between atoms: _473  and  _475
REMARK  199  A    between atoms: _475  and  _476
REMARK  200  A    between atoms: _475  and  _478
REMARK  201  A    between atoms: _478  and  _479
REMARK  202  A    between atoms: _482  and  _484
REMARK  203  A    between atoms: _484  and  _485
REMARK  204  A    between atoms: _484  and  _487
REMARK  205  A    between atoms: _490  and  _492
REMARK  206  A    between atoms: _492  and  _493
REMARK  207  A    between atoms: _492  and  _495
REMARK  208  A    between atoms: _495  and  _496
REMARK  209  A    between atoms: _499  and  _501
REMARK  210  A    between atoms: _501  and  _502
REMARK  211  A    between atoms: _501  and  _504
REMARK  212  A    between atoms: _504  and  _505
REMARK  213  A    between atoms: _509  and  _510
REMARK  214  A    between atoms: _515  and  _517
REMARK  215  A    between atoms: _517  and  _518
REMARK  216  A    between atoms: _517  and  _520
REMARK  217  A    between atoms: _520  and  _521
REMARK  218  A    between atoms: _524  and  _526
REMARK  219  A    between atoms: _526  and  _527
REMARK  220  A    between atoms: _526  and  _529
REMARK  221  A    between atoms: _529  and  _530
REMARK  222  A    between atoms: _535  and  _537
REMARK  223  A    between atoms: _537  and  _538
REMARK  224  A    between atoms: _537  and  _540
REMARK  225  A    between atoms: _543  and  _545
REMARK  226  A    between atoms: _545  and  _546
REMARK  227  A    between atoms: _545  and  _548
REMARK  228  A    between atoms: _548  and  _549
REMARK  229  A    between atoms: _552  and  _554
REMARK  230  A    between atoms: _554  and  _555
REMARK  231  A    between atoms: _557  and  _559
REMARK  232  A    between atoms: _559  and  _560
REMARK  233  A    between atoms: _559  and  _562
REMARK  234  A    between atoms: _562  and  _563
REMARK  235  A    between atoms: _563  and  _564
REMARK  236  A    between atoms: _564  and  _565
REMARK  237  A    between atoms: _574  and  _576
REMARK  238  A    between atoms: _576  and  _577
REMARK  239  A    between atoms: _576  and  _579
REMARK  240  A    between atoms: _579  and  _580
REMARK                            x       y       z     vdW  Elec       q    Type
REMARK                         _______ _______ _______ _____ _____    ______ ____
ROOT
ATOM      1  CA  LEU A   1      16.065  13.365  -4.867  0.00  0.00    +0.133 C 
ENDROOT
BRANCH   1   2
ATOM      2  N   LEU A   1      16.870  14.311  -5.626  0.00  0.00    -0.239 NA
ATOM      3  H   LEU A   1      16.899  15.308  -5.330  0.00  0.00    +0.142 HD
ENDBRANCH   1   2
BRANCH   1   4
ATOM      4  C   LEU A   1      14.619  13.509  -5.314  0.00  0.00    +0.224 C 
ATOM      5  O   LEU A   1      14.167  14.607  -5.639  0.00  0.00    -0.287 OA
ENDBRANCH   1   4
BRANCH   1   6
ATOM      6  CB  LEU A   1      16.172  13.655  -3.370  0.00  0.00    +0.025 C 
BRANCH   6   7
ATOM      7  CG  LEU A   1      17.595  13.725  -2.814  0.00  0.00    +0.002 C 
ATOM      8  CD2 LEU A   1      17.529  14.009  -1.323  0.00  0.00    +0.000 C 
ATOM      9  CD1 LEU A   1      18.331  12.420  -3.080  0.00  0.00    +0.000 C 
ENDBRANCH   6   7
ENDBRANCH   1   6
TORSDOF 4
REMARK  Name = ../refined-set-2016/2wl0/2wl0_pocket.pdb
REMARK  240 active torsions:
REMARK  status: ('A' for Active; 'I' for Inactive)
REMARK    1  A    between atoms: _1  and  _3
REMARK    2  A    between atoms: _3  and  _4
REMARK    3  A    between atoms: _3  and  _6
REMARK    4  A    between atoms: _6  and  _7
REMARK    5  A    between atoms: _7  and  _8
REMARK    6  A    between atoms: _8  and  _9
REMARK    7  A    between atoms: _18  and  _20
REMARK    8  A    between atoms: _20  and  _21
REMARK    9  A    between atoms: _20  and  _23
REMARK   10  A    between atoms: _23  and  _24
REMARK   11  A    between atoms: _27  and  _29
REMARK   12  A    between atoms: _29  and  _30
REMARK   13  A    between atoms: _29  and  _32
REMARK   14  A    between atoms: _32  and  _33
REMARK   15  A    between atoms: _36  and  _38
REMARK   16  A    between atoms: _38  and  _39
REMARK   17  A    between atoms: _38  and  _41
REMARK   18  A    between atoms: _41  and  _42
REMARK   19  A    between atoms: _45  and  _47
REMARK   20  A    between atoms: _47  and  _48
REMARK   21  A    between atoms: _47  and  _50
REMARK   22  A    between atoms: _50  and  _51
REMARK   23  A    between atoms: _54  and  _56
REMARK   24  A    between atoms: _56  and  _57
REMARK   25  A    between atoms: _59  and  _61
REMARK   26  A    between atoms: _61  and  _62
REMARK   27  A    between atoms: _65  and  _67
REMARK   28  A    between atoms: _67  and  _68
REMARK   29  A    between atoms: _67  and  _70
REMARK   30  A    between atoms: _70  and  _71
REMARK   31  A    between atoms: _74  and  _76
REMARK   32  A    between atoms: _76  and  _77
REMARK   33  A    between atoms: _76  and  _79
REMARK   34  A    between atoms: _79  and  _80
REMARK   35  A    between atoms: _83  and  _85
REMARK   36  A    between atoms: _85  and  _86
REMARK   37  A    between atoms: _85  and  _88
REMARK   38  A    between atoms: _88  and  _89
REMARK   39  A    between atoms: _92  and  _94
REMARK   40  A    between atoms: _94  and  _95
REMARK   41  A    between atoms: _94  and  _97
REMARK   42  A    between atoms: _100  and  _102
REMARK   43  A    between atoms: _102  and  _103
REMARK   44  A    between atoms: _102  and  _105
REMARK   45  A    between atoms: _105  and  _106
REMARK   46  A    between atoms: _109  and  _111
REMARK   47  A    between atoms: _111  and  _112
REMARK   48  A    between atoms: _111  and  _114
REMARK   49  A    between atoms: _114  and  _115
REMARK   50  A    between atoms: _115  and  _116
REMARK   51  A    between atoms: _116  and  _117
REMARK   52  A    between atoms: _117  and  _118
REMARK   53  A    between atoms: _122  and  _124
REMARK   54  A    between atoms: _124  and  _125
REMARK   55  A    between atoms: _124  and  _127
REMARK   56  A    between atoms: _127  and  _128
REMARK   57  A    between atoms: _128  and  _129
REMARK   58  A    between atoms: _131  and  _133
REMARK   59  A    between atoms: _133  and  _134
REMARK   60  A    between atoms: _133  and  _136
REMARK   61  A    between atoms: _136  and  _137
REMARK   62  A    between atoms: _140  and  _142
REMARK   63  A    between atoms: _142  and  _143
REMARK   64  A    between atoms: _145  and  _147
REMARK   65  A    between atoms: _147  and  _148
REMARK   66  A    between atoms: _150  and  _152
REMARK   67  A    between atoms: _152  and  _153
REMARK   68  A    between atoms: _152  and  _155
REMARK   69  A    between atoms: _155  and  _156
REMARK   70  A    between atoms: _159  and  _161
REMARK   71  A    between atoms: _161  and  _162
REMARK   72  A    between atoms: _164  and  _166
REMARK   73  A    between atoms: _166  and  _167
REMARK   74  A    between atoms: _169  and  _171
REMARK   75  A    between atoms: _171  and  _172
REMARK   76  A    between atoms: _171  and  _174
REMARK   77  A    between atoms: _174  and  _175
REMARK   78  A    between atoms: _181  and  _183
REMARK   79  A    between atoms: _183  and  _184
REMARK   80  A    between atoms: _183  and  _186
REMARK   81  A    between atoms: _186  and  _187
REMARK   82  A    between atoms: _190  and  _192
REMARK   83  A    between atoms: _192  and  _193
REMARK   84  A    between atoms: _192  and  _195
REMARK   85  A    between atoms: _198  and  _200
REMARK   86  A    between atoms: _200  and  _201
REMARK   87  A    between atoms: _200  and  _203
REMARK   88  A    between atoms: _203  and  _204
REMARK   89  A    between atoms: _207  and  _209
REMARK   90  A    between atoms: _209  and  _210
REMARK   91  A    between atoms: _209  and  _212
REMARK   92  A    between atoms: _212  and  _213
REMARK   93  A    between atoms: _217  and  _218
REMARK   94  A    between atoms: _223  and  _225
REMARK   95  A    between atoms: _225  and  _226
REMARK   96  A    between atoms: _225  and  _228
REMARK   97  A    between atoms: _228  and  _229
REMARK   98  A    between atoms: _232  and  _234
REMARK   99  A    between atoms: _234  and  _235
REMARK  100  A    between atoms: _234  and  _237
REMARK  101  A    between atoms: _237  and  _238
REMARK  102  A    between atoms: _243  and  _245
REMARK  103  A    between atoms: _245  and  _246
REMARK  104  A    between atoms: _245  and  _248
REMARK  105  A    between atoms: _251  and  _253
REMARK  106  A    between atoms: _253  and  _254
REMARK  107  A    between atoms: _253  and  _256
REMARK  108  A    between atoms: _256  and  _257
REMARK  109  A    between atoms: _260  and  _262
REMARK  110  A    between atoms: _262  and  _263
REMARK  111  A    between atoms: _265  and  _267
REMARK  112  A    between atoms: _267  and  _268
REMARK  113  A    between atoms: _267  and  _270
REMARK  114  A    between atoms: _270  and  _271
REMARK  115  A    between atoms: _271  and  _272
REMARK  116  A    between atoms: _272  and  _273
REMARK  117  A    between atoms: _282  and  _284
REMARK  118  A    between atoms: _284  and  _285
REMARK  119  A    between atoms: _284  and  _287
REMARK  120  A    between atoms: _287  and  _288
REMARK  121  A    between atoms: _293  and  _295
REMARK  122  A    between atoms: _295  and  _296
REMARK  123  A    between atoms: _295  and  _298
REMARK  124  A    between atoms: _298  and  _299
REMARK  125  A    between atoms: _299  and  _300
REMARK  126  A    between atoms: _300  and  _301
REMARK  127  A    between atoms: _310  and  _312
REMARK  128  A    between atoms: _312  and  _313
REMARK  129  A    between atoms: _312  and  _315
REMARK  130  A    between atoms: _315  and  _316
REMARK  131  A    between atoms: _319  and  _321
REMARK  132  A    between atoms: _321  and  _322
REMARK  133  A    between atoms: _321  and  _324
REMARK  134  A    between atoms: _324  and  _325
REMARK  135  A    between atoms: _328  and  _330
REMARK  136  A    between atoms: _330  and  _331
REMARK  137  A    between atoms: _330  and  _333
REMARK  138  A    between atoms: _333  and  _334
REMARK  139  A    between atoms: _337  and  _339
REMARK  140  A    between atoms: _339  and  _340
REMARK  141  A    between atoms: _339  and  _342
REMARK  142  A    between atoms: _342  and  _343
REMARK  143  A    between atoms: _346  and  _348
REMARK  144  A    between atoms: _348  and  _349
REMARK  145  A    between atoms: _348  and  _351
REMARK  146  A    between atoms: _351  and  _352
REMARK  147  A    between atoms: _355  and  _357
REMARK  148  A    between atoms: _357  and  _358
REMARK  149  A    between atoms: _360  and  _362
REMARK  150  A    between atoms: _362  and  _363
REMARK  151  A    between atoms: _366  and  _368
REMARK  152  A    between atoms: _368  and  _369
REMARK  153  A    between atoms: _368  and  _371
REMARK  154  A    between atoms: _371  and  _372
REMARK  155  A    between atoms: _375  and  _377
REMARK  156  A    between atoms: _377  and  _378
REMARK  157  A    between atoms: _377  and  _380
REMARK  158  A    between atoms: _380  and  _381
REMARK  159  A    between atoms: _384  and  _386
REMARK  160  A    between atoms: _386  and  _387
REMARK  161  A    between atoms: _386  and  _389
REMARK  162  A    between atoms: _389  and  _390
REMARK  163  A    between atoms: _393  and  _395
REMARK  164  A    between atoms: _395  and  _396
REMARK  165  A    between atoms: _395  and  _398
REMARK  166  A    between atoms: _401  and  _403
REMARK  167  A    between atoms: _403  and  _404
REMARK  168  A    between atoms: _403  and  _406
REMARK  169  A    between atoms: _406  and  _407
REMARK  170  A    between atoms: _407  and  _408
REMARK  171  A    between atoms: _408  and  _409
REMARK  172  A    between atoms: _409  and  _410
REMARK  173  A    between atoms: _414  and  _416
REMARK  174  A    between atoms: _416  and  _417
REMARK  175  A    between atoms: _416  and  _419
REMARK  176  A    between atoms: _419  and  _420
REMARK  177  A    between atoms: _420  and  _421
REMARK  178  A    between atoms: _423  and  _425
REMARK  179  A    between atoms: _425  and  _426
REMARK  180  A    between atoms: _425  and  _428
REMARK  181  A    between atoms: _428  and  _429
REMARK  182  A    between atoms: _432  and  _434
REMARK  183  A    between atoms: _434  and  _435
REMARK  184  A    between atoms: _437  and  _439
REMARK  185  A    between atoms: _439  and  _440
REMARK  186  A    between atoms: _442  and  _444
REMARK  187  A    between atoms: _444  and  _445
REMARK  188  A    between atoms: _444  and  _447
REMARK  189  A    between atoms: _447  and  _448
REMARK  190  A    between atoms: _451  and  _453
REMARK  191  A    between atoms: _453  and  _454
REMARK  192  A    between atoms: _456  and  _458
REMARK  193  A    between atoms: _458  and  _459
REMARK  194  A    between atoms: _461  and  _463
REMARK  195  A    between atoms: _463  and  _464
REMARK  196  A    between atoms: _463  and  _466
REMARK  197  A    between atoms: _466  and  _467
REMARK  198  A    between atoms: _473  and  _475
REMARK  199  A    between atoms: _475  and  _476
REMARK  200  A    between atoms: _475  and  _478
REMARK  201  A    between atoms: _478  and  _479
REMARK  202  A    between atoms: _482  and  _484
REMARK  203  A    between atoms: _484  and  _485
REMARK  204  A    between atoms: _484  and  _487
REMARK  205  A    between atoms: _490  and  _492
REMARK  206  A    between atoms: _492  and  _493
REMARK  207  A    between atoms: _492  and  _495
REMARK  208  A    between atoms: _495  and  _496
REMARK  209  A    between atoms: _499  and  _501
REMARK  210  A    between atoms: _501  and  _502
REMARK  211  A    between atoms: _501  and  _504
REMARK  212  A    between atoms: _504  and  _505
REMARK  213  A    between atoms: _509  and  _510
REMARK  214  A    between atoms: _515  and  _517
REMARK  215  A    between atoms: _517  and  _518
REMARK  216  A    between atoms: _517  and  _520
REMARK  217  A    between atoms: _520  and  _521
REMARK  218  A    between atoms: _524  and  _526
REMARK  219  A    between atoms: _526  and  _527
REMARK  220  A    between atoms: _526  and  _529
REMARK  221  A    between atoms: _529  and  _530
REMARK  222  A    between atoms: _535  and  _537
REMARK  223  A    between atoms: _537  and  _538
REMARK  224  A    between atoms: _537  and  _540
REMARK  225  A    between atoms: _543  and  _545
REMARK  226  A    between atoms: _545  and  _546
REMARK  227  A    between atoms: _545  and  _548
REMARK  228  A    between atoms: _548  and  _549
REMARK  229  A    between atoms: _552  and  _554
REMARK  230  A    between atoms: _554  and  _555
REMARK  231  A    between atoms: _557  and  _559
REMARK  232  A    between atoms: _559  and  _560
REMARK  233  A    between atoms: _559  and  _562
REMARK  234  A    between atoms: _562  and  _563
REMARK  235  A    between atoms: _563  and  _564
REMARK  236  A    between atoms: _564  and  _565
REMARK  237  A    between atoms: _574  and  _576
REMARK  238  A    between atoms: _576  and  _577
REMARK  239  A    between atoms: _576  and  _579
REMARK  240  A    between atoms: _579  and  _580
REMARK                            x       y       z     vdW  Elec       q    Type
REMARK                         _______ _______ _______ _____ _____    ______ ____
ROOT
ATOM      1  C   VAL A   5      14.777  22.220  -3.697  0.00  0.00    +0.241 C 
ATOM      2  O   VAL A   5      15.195  21.081  -3.906  0.00  0.00    -0.273 OA
ATOM      3  N   ILE A   6      15.482  23.316  -3.969  0.00  0.00    -0.297 N 
ATOM      4  H   ILE A   6      15.051  24.246  -3.794  0.00  0.00    +0.150 HD
ENDROOT
BRANCH   3   5
ATOM      5  CA  ILE A   6      16.841  23.257  -4.505  0.00  0.00    +0.149 C 
BRANCH   5   6
ATOM      6  C   ILE A   6      17.793  23.489  -3.331  0.00  0.00    +0.241 C 
ATOM      7  O   ILE A   6      17.850  24.588  -2.778  0.00  0.00    -0.273 OA
ATOM      8  N   GLY A   7      18.531  22.451  -2.959  0.00  0.00    -0.295 N 
ATOM      9  H   GLY A   7      18.455  21.554  -3.480  0.00  0.00    +0.150 HD
BRANCH   8  10
ATOM     10  CA  GLY A   7      19.445  22.551  -1.833  0.00  0.00    +0.176 C 
BRANCH  10  11
ATOM     11  C   GLY A   7      20.848  23.025  -2.160  0.00  0.00    +0.243 C 
ATOM     12  N   ARG A   8      21.692  23.086  -1.133  0.00  0.00    -0.297 N 
ATOM     13  H   ARG A   8      21.362  22.797  -0.190  0.00  0.00    +0.150 HD
ATOM     14  O   GLY A   7      21.168  23.316  -3.314  0.00  0.00    -0.273 OA
BRANCH  12  15
ATOM     15  CA  ARG A   8      23.065  23.546  -1.292  0.00  0.00    +0.149 C 
BRANCH  15  16
ATOM     16  C   ARG A   8      23.905  22.757  -2.290  0.00  0.00    +0.241 C 
ATOM     17  N   ASN A   9      23.584  21.483  -2.492  0.00  0.00    -0.298 N 
ATOM     18  H   ASN A   9      22.781  21.061  -1.983  0.00  0.00    +0.150 HD
ATOM     19  O   ARG A   8      24.838  23.304  -2.879  0.00  0.00    -0.273 OA
BRANCH  17  20
ATOM     20  CA  ASN A   9      24.361  20.678  -3.430  0.00  0.00    +0.146 C 
BRANCH  20  21
ATOM     21  C   ASN A   9      24.331  21.296  -4.827  0.00  0.00    +0.227 C 
ATOM     22  O   ASN A   9      25.318  21.235  -5.563  0.00  0.00    -0.286 OA
ENDBRANCH  20  21
BRANCH  20  23
ATOM     23  CB  ASN A   9      23.852  19.228  -3.469  0.00  0.00    +0.112 C 
BRANCH  23  24
ATOM     24  CG  ASN A   9      22.521  19.087  -4.184  0.00  0.00    +0.222 C 
ATOM     25  OD1 ASN A   9      21.516  19.657  -3.768  0.00  0.00    -0.275 OA
ATOM     26  ND2 ASN A   9      22.514  18.318  -5.267  0.00  0.00    -0.329 N 
ATOM     27 HD21 ASN A   9      23.391  17.855  -5.582  0.00  0.00    +0.145 HD
ATOM     28 HD22 ASN A   9      21.632  18.179  -5.800  0.00  0.00    +0.145 HD
ENDBRANCH  23  24
ENDBRANCH  20  23
ENDBRANCH  17  20
ENDBRANCH  15  16
BRANCH  15  29
ATOM     29  CB  ARG A   8      23.769  23.574   0.070  0.00  0.00    +0.033 C 
BRANCH  29  30
ATOM     30  CG  ARG A   8      23.172  24.594   1.039  0.00  0.00    +0.045 C 
BRANCH  30  31
ATOM     31  CD  ARG A   8      23.992  24.752   2.324  0.00  0.00    +0.174 C 
BRANCH  31  32
ATOM     32  NE  ARG A   8      24.018  23.530   3.116  0.00  0.00    -0.265 N 
ATOM     33  HE  ARG A   8      23.208  23.339   3.740  0.00  0.00    +0.259 HD
ATOM     34  CZ  ARG A   8      25.005  22.644   3.095  0.00  0.00    +0.342 C 
ATOM     35  NH2 ARG A   8      24.924  21.549   3.833  0.00  0.00    -0.292 N 
ATOM     36 HH21 ARG A   8      24.087  21.384   4.428  0.00  0.00    +0.255 HD
ATOM     37 HH22 ARG A   8      25.697  20.853   3.818  0.00  0.00    +0.255 HD
ATOM     38  NH1 ARG A   8      26.066  22.842   2.322  0.00  0.00    -0.292 N 
ATOM     39 HH11 ARG A   8      26.837  22.144   2.309  0.00  0.00    +0.255 HD
ATOM     40 HH12 ARG A   8      26.126  23.695   1.730  0.00  0.00    +0.255 HD
ENDBRANCH  31  32
ENDBRANCH  30  31
ENDBRANCH  29  30
ENDBRANCH  15  29
ENDBRANCH  12  15
ENDBRANCH  10  11
ENDBRANCH   8  10
ENDBRANCH   5   6
BRANCH   5  41
ATOM     41  CB  ILE A   6      17.078  24.352  -5.557  0.00  0.00    +0.027 C 
ATOM     42  CG2 ILE A   6      18.483  24.223  -6.134  0.00  0.00    +0.002 C 
BRANCH  41  43
ATOM     43  CG1 ILE A   6      16.044  24.227  -6.679  0.00  0.00    +0.002 C 
ATOM     44  CD1 ILE A   6      16.090  25.370  -7.662  0.00  0.00    +0.000 C 
ENDBRANCH  41  43
ENDBRANCH   5  41
ENDBRANCH   3   5
BRANCH   1  45
ATOM     45  CA  VAL A   5      13.383  22.450  -3.109  0.00  0.00    +0.149 C 
BRANCH  45  47
ATOM     46  C   ASN A   4      11.240  22.257  -4.232  0.00  0.00    +0.241 C 
ATOM     47  N   VAL A   5      12.343  21.668  -3.774  0.00  0.00    -0.297 N 
ATOM     48  H   VAL A   5      12.465  20.642  -3.891  0.00  0.00    +0.150 HD
ATOM     49  O   ASN A   4      11.043  23.467  -4.135  0.00  0.00    -0.273 OA
BRANCH  46  50
ATOM     50  CA  ASN A   4      10.204  21.360  -4.904  0.00  0.00    +0.158 C 
BRANCH  50  53
ATOM     51  C   THR A   3       8.690  21.118  -3.008  0.00  0.00    +0.243 C 
ATOM     52  O   THR A   3       9.552  20.536  -2.349  0.00  0.00    -0.273 OA
ATOM     53  N   ASN A   4       8.904  21.541  -4.254  0.00  0.00    -0.297 N 
ATOM     54  H   ASN A   4       8.134  22.008  -4.774  0.00  0.00    +0.150 HD
BRANCH  51  55
ATOM     55  CA  THR A   3       7.298  21.370  -2.411  0.00  0.00    +0.176 C 
BRANCH  55  57
ATOM     56  C   PRO A   2       5.769  20.173  -0.934  0.00  0.00    +0.241 C 
ATOM     57  N   THR A   3       7.017  20.425  -1.331  0.00  0.00    -0.295 N 
ATOM     58  H   THR A   3       7.808  19.939  -0.862  0.00  0.00    +0.150 HD
ATOM     59  O   PRO A   2       4.779  20.686  -1.460  0.00  0.00    -0.273 OA
BRANCH  56  65
ATOM     60  C   THR A   1       6.956  17.386  -0.690  0.00  0.00    +0.244 C 
ATOM     61  N   PRO A   2       6.733  18.248   0.317  0.00  0.00    -0.272 N 
ATOM     62  CD  PRO A   2       7.453  18.429   1.589  0.00  0.00    +0.094 C 
ATOM     63  CG  PRO A   2       7.017  19.820   2.004  0.00  0.00    +0.024 C 
ATOM     64  CB  PRO A   2       5.584  19.852   1.585  0.00  0.00    +0.031 C 
ATOM     65  CA  PRO A   2       5.607  19.178   0.213  0.00  0.00    +0.152 C 
ATOM     66  O   THR A   1       6.237  17.351  -1.690  0.00  0.00    -0.273 OA
BRANCH  60  67
ATOM     67  CA  THR A   1       8.137  16.435  -0.552  0.00  0.00    +0.172 C 
BRANCH  67  68
ATOM     68  CB  THR A   1       9.367  17.089  -1.211  0.00  0.00    +0.135 C 
ATOM     69  CG2 THR A   1       9.164  17.222  -2.714  0.00  0.00    +0.034 C 
BRANCH  68  70
ATOM     70  OG1 THR A   1       9.575  18.388  -0.638  0.00  0.00    -0.383 OA
ATOM     71  HG1 THR A   1      10.365  18.811  -1.060  0.00  0.00    +0.210 HD
ENDBRANCH  68  70
ENDBRANCH  67  68
BRANCH  67  72
ATOM     72  N   THR A   1       7.793  15.166  -1.183  0.00  0.00    -0.236 NA
ATOM     73  H   THR A   1       8.126  14.959  -2.146  0.00  0.00    +0.142 HD
ENDBRANCH  67  72
ENDBRANCH  60  67
ENDBRANCH  56  65
ENDBRANCH  55  57
BRANCH  55  74
ATOM     74  CB  THR A   3       7.219  22.818  -1.869  0.00  0.00    +0.137 C 
ATOM     75  CG2 THR A   3       8.506  23.187  -1.138  0.00  0.00    +0.034 C 
BRANCH  74  76
ATOM     76  OG1 THR A   3       7.006  23.731  -2.948  0.00  0.00    -0.382 OA
ATOM     77  HG1 THR A   3       7.757  23.663  -3.590  0.00  0.00    +0.210 HD
ENDBRANCH  74  76
ENDBRANCH  55  74
ENDBRANCH  51  55
ENDBRANCH  50  53
BRANCH  50  78
ATOM     78  CB  ASN A   4      10.125  21.714  -6.395  0.00  0.00    +0.114 C 
BRANCH  78  79
ATOM     79  CG  ASN A   4       9.340  20.695  -7.198  0.00  0.00    +0.222 C 
ATOM     80  OD1 ASN A   4       9.320  19.515  -6.862  0.00  0.00    -0.275 OA
ATOM     81  ND2 ASN A   4       8.704  21.145  -8.274  0.00  0.00    -0.329 N 
ATOM     82 HD21 ASN A   4       8.749  22.154  -8.520  0.00  0.00    +0.145 HD
ATOM     83 HD22 ASN A   4       8.161  20.488  -8.870  0.00  0.00    +0.145 HD
ENDBRANCH  78  79
ENDBRANCH  50  78
ENDBRANCH  46  50
ENDBRANCH  45  47
BRANCH  45  84
ATOM     84  CB  VAL A   5      13.443  22.129  -1.594  0.00  0.00    +0.027 C 
ATOM     85  CG2 VAL A   5      12.070  22.287  -0.967  0.00  0.00    +0.002 C 
ATOM     86  CG1 VAL A   5      13.954  20.734  -1.383  0.00  0.00    +0.002 C 
ENDBRANCH  45  84
ENDBRANCH   1  45
TORSDOF 32
REMARK  Name = ../refined-set-2016/2wl0/2wl0_pocket.pdb
REMARK  240 active torsions:
REMARK  status: ('A' for Active; 'I' for Inactive)
REMARK    1  A    between atoms: _1  and  _3
REMARK    2  A    between atoms: _3  and  _4
REMARK    3  A    between atoms: _3  and  _6
REMARK    4  A    between atoms: _6  and  _7
REMARK    5  A    between atoms: _7  and  _8
REMARK    6  A    between atoms: _8  and  _9
REMARK    7  A    between atoms: _18  and  _20
REMARK    8  A    between atoms: _20  and  _21
REMARK    9  A    between atoms: _20  and  _23
REMARK   10  A    between atoms: _23  and  _24
REMARK   11  A    between atoms: _27  and  _29
REMARK   12  A    between atoms: _29  and  _30
REMARK   13  A    between atoms: _29  and  _32
REMARK   14  A    between atoms: _32  and  _33
REMARK   15  A    between atoms: _36  and  _38
REMARK   16  A    between atoms: _38  and  _39
REMARK   17  A    between atoms: _38  and  _41
REMARK   18  A    between atoms: _41  and  _42
REMARK   19  A    between atoms: _45  and  _47
REMARK   20  A    between atoms: _47  and  _48
REMARK   21  A    between atoms: _47  and  _50
REMARK   22  A    between atoms: _50  and  _51
REMARK   23  A    between atoms: _54  and  _56
REMARK   24  A    between atoms: _56  and  _57
REMARK   25  A    between atoms: _59  and  _61
REMARK   26  A    between atoms: _61  and  _62
REMARK   27  A    between atoms: _65  and  _67
REMARK   28  A    between atoms: _67  and  _68
REMARK   29  A    between atoms: _67  and  _70
REMARK   30  A    between atoms: _70  and  _71
REMARK   31  A    between atoms: _74  and  _76
REMARK   32  A    between atoms: _76  and  _77
REMARK   33  A    between atoms: _76  and  _79
REMARK   34  A    between atoms: _79  and  _80
REMARK   35  A    between atoms: _83  and  _85
REMARK   36  A    between atoms: _85  and  _86
REMARK   37  A    between atoms: _85  and  _88
REMARK   38  A    between atoms: _88  and  _89
REMARK   39  A    between atoms: _92  and  _94
REMARK   40  A    between atoms: _94  and  _95
REMARK   41  A    between atoms: _94  and  _97
REMARK   42  A    between atoms: _100  and  _102
REMARK   43  A    between atoms: _102  and  _103
REMARK   44  A    between atoms: _102  and  _105
REMARK   45  A    between atoms: _105  and  _106
REMARK   46  A    between atoms: _109  and  _111
REMARK   47  A    between atoms: _111  and  _112
REMARK   48  A    between atoms: _111  and  _114
REMARK   49  A    between atoms: _114  and  _115
REMARK   50  A    between atoms: _115  and  _116
REMARK   51  A    between atoms: _116  and  _117
REMARK   52  A    between atoms: _117  and  _118
REMARK   53  A    between atoms: _122  and  _124
REMARK   54  A    between atoms: _124  and  _125
REMARK   55  A    between atoms: _124  and  _127
REMARK   56  A    between atoms: _127  and  _128
REMARK   57  A    between atoms: _128  and  _129
REMARK   58  A    between atoms: _131  and  _133
REMARK   59  A    between atoms: _133  and  _134
REMARK   60  A    between atoms: _133  and  _136
REMARK   61  A    between atoms: _136  and  _137
REMARK   62  A    between atoms: _140  and  _142
REMARK   63  A    between atoms: _142  and  _143
REMARK   64  A    between atoms: _145  and  _147
REMARK   65  A    between atoms: _147  and  _148
REMARK   66  A    between atoms: _150  and  _152
REMARK   67  A    between atoms: _152  and  _153
REMARK   68  A    between atoms: _152  and  _155
REMARK   69  A    between atoms: _155  and  _156
REMARK   70  A    between atoms: _159  and  _161
REMARK   71  A    between atoms: _161  and  _162
REMARK   72  A    between atoms: _164  and  _166
REMARK   73  A    between atoms: _166  and  _167
REMARK   74  A    between atoms: _169  and  _171
REMARK   75  A    between atoms: _171  and  _172
REMARK   76  A    between atoms: _171  and  _174
REMARK   77  A    between atoms: _174  and  _175
REMARK   78  A    between atoms: _181  and  _183
REMARK   79  A    between atoms: _183  and  _184
REMARK   80  A    between atoms: _183  and  _186
REMARK   81  A    between atoms: _186  and  _187
REMARK   82  A    between atoms: _190  and  _192
REMARK   83  A    between atoms: _192  and  _193
REMARK   84  A    between atoms: _192  and  _195
REMARK   85  A    between atoms: _198  and  _200
REMARK   86  A    between atoms: _200  and  _201
REMARK   87  A    between atoms: _200  and  _203
REMARK   88  A    between atoms: _203  and  _204
REMARK   89  A    between atoms: _207  and  _209
REMARK   90  A    between atoms: _209  and  _210
REMARK   91  A    between atoms: _209  and  _212
REMARK   92  A    between atoms: _212  and  _213
REMARK   93  A    between atoms: _217  and  _218
REMARK   94  A    between atoms: _223  and  _225
REMARK   95  A    between atoms: _225  and  _226
REMARK   96  A    between atoms: _225  and  _228
REMARK   97  A    between atoms: _228  and  _229
REMARK   98  A    between atoms: _232  and  _234
REMARK   99  A    between atoms: _234  and  _235
REMARK  100  A    between atoms: _234  and  _237
REMARK  101  A    between atoms: _237  and  _238
REMARK  102  A    between atoms: _243  and  _245
REMARK  103  A    between atoms: _245  and  _246
REMARK  104  A    between atoms: _245  and  _248
REMARK  105  A    between atoms: _251  and  _253
REMARK  106  A    between atoms: _253  and  _254
REMARK  107  A    between atoms: _253  and  _256
REMARK  108  A    between atoms: _256  and  _257
REMARK  109  A    between atoms: _260  and  _262
REMARK  110  A    between atoms: _262  and  _263
REMARK  111  A    between atoms: _265  and  _267
REMARK  112  A    between atoms: _267  and  _268
REMARK  113  A    between atoms: _267  and  _270
REMARK  114  A    between atoms: _270  and  _271
REMARK  115  A    between atoms: _271  and  _272
REMARK  116  A    between atoms: _272  and  _273
REMARK  117  A    between atoms: _282  and  _284
REMARK  118  A    between atoms: _284  and  _285
REMARK  119  A    between atoms: _284  and  _287
REMARK  120  A    between atoms: _287  and  _288
REMARK  121  A    between atoms: _293  and  _295
REMARK  122  A    between atoms: _295  and  _296
REMARK  123  A    between atoms: _295  and  _298
REMARK  124  A    between atoms: _298  and  _299
REMARK  125  A    between atoms: _299  and  _300
REMARK  126  A    between atoms: _300  and  _301
REMARK  127  A    between atoms: _310  and  _312
REMARK  128  A    between atoms: _312  and  _313
REMARK  129  A    between atoms: _312  and  _315
REMARK  130  A    between atoms: _315  and  _316
REMARK  131  A    between atoms: _319  and  _321
REMARK  132  A    between atoms: _321  and  _322
REMARK  133  A    between atoms: _321  and  _324
REMARK  134  A    between atoms: _324  and  _325
REMARK  135  A    between atoms: _328  and  _330
REMARK  136  A    between atoms: _330  and  _331
REMARK  137  A    between atoms: _330  and  _333
REMARK  138  A    between atoms: _333  and  _334
REMARK  139  A    between atoms: _337  and  _339
REMARK  140  A    between atoms: _339  and  _340
REMARK  141  A    between atoms: _339  and  _342
REMARK  142  A    between atoms: _342  and  _343
REMARK  143  A    between atoms: _346  and  _348
REMARK  144  A    between atoms: _348  and  _349
REMARK  145  A    between atoms: _348  and  _351
REMARK  146  A    between atoms: _351  and  _352
REMARK  147  A    between atoms: _355  and  _357
REMARK  148  A    between atoms: _357  and  _358
REMARK  149  A    between atoms: _360  and  _362
REMARK  150  A    between atoms: _362  and  _363
REMARK  151  A    between atoms: _366  and  _368
REMARK  152  A    between atoms: _368  and  _369
REMARK  153  A    between atoms: _368  and  _371
REMARK  154  A    between atoms: _371  and  _372
REMARK  155  A    between atoms: _375  and  _377
REMARK  156  A    between atoms: _377  and  _378
REMARK  157  A    between atoms: _377  and  _380
REMARK  158  A    between atoms: _380  and  _381
REMARK  159  A    between atoms: _384  and  _386
REMARK  160  A    between atoms: _386  and  _387
REMARK  161  A    between atoms: _386  and  _389
REMARK  162  A    between atoms: _389  and  _390
REMARK  163  A    between atoms: _393  and  _395
REMARK  164  A    between atoms: _395  and  _396
REMARK  165  A    between atoms: _395  and  _398
REMARK  166  A    between atoms: _401  and  _403
REMARK  167  A    between atoms: _403  and  _404
REMARK  168  A    between atoms: _403  and  _406
REMARK  169  A    between atoms: _406  and  _407
REMARK  170  A    between atoms: _407  and  _408
REMARK  171  A    between atoms: _408  and  _409
REMARK  172  A    between atoms: _409  and  _410
REMARK  173  A    between atoms: _414  and  _416
REMARK  174  A    between atoms: _416  and  _417
REMARK  175  A    between atoms: _416  and  _419
REMARK  176  A    between atoms: _419  and  _420
REMARK  177  A    between atoms: _420  and  _421
REMARK  178  A    between atoms: _423  and  _425
REMARK  179  A    between atoms: _425  and  _426
REMARK  180  A    between atoms: _425  and  _428
REMARK  181  A    between atoms: _428  and  _429
REMARK  182  A    between atoms: _432  and  _434
REMARK  183  A    between atoms: _434  and  _435
REMARK  184  A    between atoms: _437  and  _439
REMARK  185  A    between atoms: _439  and  _440
REMARK  186  A    between atoms: _442  and  _444
REMARK  187  A    between atoms: _444  and  _445
REMARK  188  A    between atoms: _444  and  _447
REMARK  189  A    between atoms: _447  and  _448
REMARK  190  A    between atoms: _451  and  _453
REMARK  191  A    between atoms: _453  and  _454
REMARK  192  A    between atoms: _456  and  _458
REMARK  193  A    between atoms: _458  and  _459
REMARK  194  A    between atoms: _461  and  _463
REMARK  195  A    between atoms: _463  and  _464
REMARK  196  A    between atoms: _463  and  _466
REMARK  197  A    between atoms: _466  and  _467
REMARK  198  A    between atoms: _473  and  _475
REMARK  199  A    between atoms: _475  and  _476
REMARK  200  A    between atoms: _475  and  _478
REMARK  201  A    between atoms: _478  and  _479
REMARK  202  A    between atoms: _482  and  _484
REMARK  203  A    between atoms: _484  and  _485
REMARK  204  A    between atoms: _484  and  _487
REMARK  205  A    between atoms: _490  and  _492
REMARK  206  A    between atoms: _492  and  _493
REMARK  207  A    between atoms: _492  and  _495
REMARK  208  A    between atoms: _495  and  _496
REMARK  209  A    between atoms: _499  and  _501
REMARK  210  A    between atoms: _501  and  _502
REMARK  211  A    between atoms: _501  and  _504
REMARK  212  A    between atoms: _504  and  _505
REMARK  213  A    between atoms: _509  and  _510
REMARK  214  A    between atoms: _515  and  _517
REMARK  215  A    between atoms: _517  and  _518
REMARK  216  A    between atoms: _517  and  _520
REMARK  217  A    between atoms: _520  and  _521
REMARK  218  A    between atoms: _524  and  _526
REMARK  219  A    between atoms: _526  and  _527
REMARK  220  A    between atoms: _526  and  _529
REMARK  221  A    between atoms: _529  and  _530
REMARK  222  A    between atoms: _535  and  _537
REMARK  223  A    between atoms: _537  and  _538
REMARK  224  A    between atoms: _537  and  _540
REMARK  225  A    between atoms: _543  and  _545
REMARK  226  A    between atoms: _545  and  _546
REMARK  227  A    between atoms: _545  and  _548
REMARK  228  A    between atoms: _548  and  _549
REMARK  229  A    between atoms: _552  and  _554
REMARK  230  A    between atoms: _554  and  _555
REMARK  231  A    between atoms: _557  and  _559
REMARK  232  A    between atoms: _559  and  _560
REMARK  233  A    between atoms: _559  and  _562
REMARK  234  A    between atoms: _562  and  _563
REMARK  235  A    between atoms: _563  and  _564
REMARK  236  A    between atoms: _564  and  _565
REMARK  237  A    between atoms: _574  and  _576
REMARK  238  A    between atoms: _576  and  _577
REMARK  239  A    between atoms: _576  and  _579
REMARK  240  A    between atoms: _579  and  _580
REMARK                            x       y       z     vdW  Elec       q    Type
REMARK                         _______ _______ _______ _____ _____    ______ ____
ROOT
ATOM      1  O   HOH     1      20.974  16.656  10.032  0.00  0.00    +0.000 OA
ENDROOT
TORSDOF 0
REMARK  Name = ../refined-set-2016/2wl0/2wl0_pocket.pdb
REMARK  240 active torsions:
REMARK  status: ('A' for Active; 'I' for Inactive)
REMARK    1  A    between atoms: _1  and  _3
REMARK    2  A    between atoms: _3  and  _4
REMARK    3  A    between atoms: _3  and  _6
REMARK    4  A    between atoms: _6  and  _7
REMARK    5  A    between atoms: _7  and  _8
REMARK    6  A    between atoms: _8  and  _9
REMARK    7  A    between atoms: _18  and  _20
REMARK    8  A    between atoms: _20  and  _21
REMARK    9  A    between atoms: _20  and  _23
REMARK   10  A    between atoms: _23  and  _24
REMARK   11  A    between atoms: _27  and  _29
REMARK   12  A    between atoms: _29  and  _30
REMARK   13  A    between atoms: _29  and  _32
REMARK   14  A    between atoms: _32  and  _33
REMARK   15  A    between atoms: _36  and  _38
REMARK   16  A    between atoms: _38  and  _39
REMARK   17  A    between atoms: _38  and  _41
REMARK   18  A    between atoms: _41  and  _42
REMARK   19  A    between atoms: _45  and  _47
REMARK   20  A    between atoms: _47  and  _48
REMARK   21  A    between atoms: _47  and  _50
REMARK   22  A    between atoms: _50  and  _51
REMARK   23  A    between atoms: _54  and  _56
REMARK   24  A    between atoms: _56  and  _57
REMARK   25  A    between atoms: _59  and  _61
REMARK   26  A    between atoms: _61  and  _62
REMARK   27  A    between atoms: _65  and  _67
REMARK   28  A    between atoms: _67  and  _68
REMARK   29  A    between atoms: _67  and  _70
REMARK   30  A    between atoms: _70  and  _71
REMARK   31  A    between atoms: _74  and  _76
REMARK   32  A    between atoms: _76  and  _77
REMARK   33  A    between atoms: _76  and  _79
REMARK   34  A    between atoms: _79  and  _80
REMARK   35  A    between atoms: _83  and  _85
REMARK   36  A    between atoms: _85  and  _86
REMARK   37  A    between atoms: _85  and  _88
REMARK   38  A    between atoms: _88  and  _89
REMARK   39  A    between atoms: _92  and  _94
REMARK   40  A    between atoms: _94  and  _95
REMARK   41  A    between atoms: _94  and  _97
REMARK   42  A    between atoms: _100  and  _102
REMARK   43  A    between atoms: _102  and  _103
REMARK   44  A    between atoms: _102  and  _105
REMARK   45  A    between atoms: _105  and  _106
REMARK   46  A    between atoms: _109  and  _111
REMARK   47  A    between atoms: _111  and  _112
REMARK   48  A    between atoms: _111  and  _114
REMARK   49  A    between atoms: _114  and  _115
REMARK   50  A    between atoms: _115  and  _116
REMARK   51  A    between atoms: _116  and  _117
REMARK   52  A    between atoms: _117  and  _118
REMARK   53  A    between atoms: _122  and  _124
REMARK   54  A    between atoms: _124  and  _125
REMARK   55  A    between atoms: _124  and  _127
REMARK   56  A    between atoms: _127  and  _128
REMARK   57  A    between atoms: _128  and  _129
REMARK   58  A    between atoms: _131  and  _133
REMARK   59  A    between atoms: _133  and  _134
REMARK   60  A    between atoms: _133  and  _136
REMARK   61  A    between atoms: _136  and  _137
REMARK   62  A    between atoms: _140  and  _142
REMARK   63  A    between atoms: _142  and  _143
REMARK   64  A    between atoms: _145  and  _147
REMARK   65  A    between atoms: _147  and  _148
REMARK   66  A    between atoms: _150  and  _152
REMARK   67  A    between atoms: _152  and  _153
REMARK   68  A    between atoms: _152  and  _155
REMARK   69  A    between atoms: _155  and  _156
REMARK   70  A    between atoms: _159  and  _161
REMARK   71  A    between atoms: _161  and  _162
REMARK   72  A    between atoms: _164  and  _166
REMARK   73  A    between atoms: _166  and  _167
REMARK   74  A    between atoms: _169  and  _171
REMARK   75  A    between atoms: _171  and  _172
REMARK   76  A    between atoms: _171  and  _174
REMARK   77  A    between atoms: _174  and  _175
REMARK   78  A    between atoms: _181  and  _183
REMARK   79  A    between atoms: _183  and  _184
REMARK   80  A    between atoms: _183  and  _186
REMARK   81  A    between atoms: _186  and  _187
REMARK   82  A    between atoms: _190  and  _192
REMARK   83  A    between atoms: _192  and  _193
REMARK   84  A    between atoms: _192  and  _195
REMARK   85  A    between atoms: _198  and  _200
REMARK   86  A    between atoms: _200  and  _201
REMARK   87  A    between atoms: _200  and  _203
REMARK   88  A    between atoms: _203  and  _204
REMARK   89  A    between atoms: _207  and  _209
REMARK   90  A    between atoms: _209  and  _210
REMARK   91  A    between atoms: _209  and  _212
REMARK   92  A    between atoms: _212  and  _213
REMARK   93  A    between atoms: _217  and  _218
REMARK   94  A    between atoms: _223  and  _225
REMARK   95  A    between atoms: _225  and  _226
REMARK   96  A    between atoms: _225  and  _228
REMARK   97  A    between atoms: _228  and  _229
REMARK   98  A    between atoms: _232  and  _234
REMARK   99  A    between atoms: _234  and  _235
REMARK  100  A    between atoms: _234  and  _237
REMARK  101  A    between atoms: _237  and  _238
REMARK  102  A    between atoms: _243  and  _245
REMARK  103  A    between atoms: _245  and  _246
REMARK  104  A    between atoms: _245  and  _248
REMARK  105  A    between atoms: _251  and  _253
REMARK  106  A    between atoms: _253  and  _254
REMARK  107  A    between atoms: _253  and  _256
REMARK  108  A    between atoms: _256  and  _257
REMARK  109  A    between atoms: _260  and  _262
REMARK  110  A    between atoms: _262  and  _263
REMARK  111  A    between atoms: _265  and  _267
REMARK  112  A    between atoms: _267  and  _268
REMARK  113  A    between atoms: _267  and  _270
REMARK  114  A    between atoms: _270  and  _271
REMARK  115  A    between atoms: _271  and  _272
REMARK  116  A    between atoms: _272  and  _273
REMARK  117  A    between atoms: _282  and  _284
REMARK  118  A    between atoms: _284  and  _285
REMARK  119  A    between atoms: _284  and  _287
REMARK  120  A    between atoms: _287  and  _288
REMARK  121  A    between atoms: _293  and  _295
REMARK  122  A    between atoms: _295  and  _296
REMARK  123  A    between atoms: _295  and  _298
REMARK  124  A    between atoms: _298  and  _299
REMARK  125  A    between atoms: _299  and  _300
REMARK  126  A    between atoms: _300  and  _301
REMARK  127  A    between atoms: _310  and  _312
REMARK  128  A    between atoms: _312  and  _313
REMARK  129  A    between atoms: _312  and  _315
REMARK  130  A    between atoms: _315  and  _316
REMARK  131  A    between atoms: _319  and  _321
REMARK  132  A    between atoms: _321  and  _322
REMARK  133  A    between atoms: _321  and  _324
REMARK  134  A    between atoms: _324  and  _325
REMARK  135  A    between atoms: _328  and  _330
REMARK  136  A    between atoms: _330  and  _331
REMARK  137  A    between atoms: _330  and  _333
REMARK  138  A    between atoms: _333  and  _334
REMARK  139  A    between atoms: _337  and  _339
REMARK  140  A    between atoms: _339  and  _340
REMARK  141  A    between atoms: _339  and  _342
REMARK  142  A    between atoms: _342  and  _343
REMARK  143  A    between atoms: _346  and  _348
REMARK  144  A    between atoms: _348  and  _349
REMARK  145  A    between atoms: _348  and  _351
REMARK  146  A    between atoms: _351  and  _352
REMARK  147  A    between atoms: _355  and  _357
REMARK  148  A    between atoms: _357  and  _358
REMARK  149  A    between atoms: _360  and  _362
REMARK  150  A    between atoms: _362  and  _363
REMARK  151  A    between atoms: _366  and  _368
REMARK  152  A    between atoms: _368  and  _369
REMARK  153  A    between atoms: _368  and  _371
REMARK  154  A    between atoms: _371  and  _372
REMARK  155  A    between atoms: _375  and  _377
REMARK  156  A    between atoms: _377  and  _378
REMARK  157  A    between atoms: _377  and  _380
REMARK  158  A    between atoms: _380  and  _381
REMARK  159  A    between atoms: _384  and  _386
REMARK  160  A    between atoms: _386  and  _387
REMARK  161  A    between atoms: _386  and  _389
REMARK  162  A    between atoms: _389  and  _390
REMARK  163  A    between atoms: _393  and  _395
REMARK  164  A    between atoms: _395  and  _396
REMARK  165  A    between atoms: _395  and  _398
REMARK  166  A    between atoms: _401  and  _403
REMARK  167  A    between atoms: _403  and  _404
REMARK  168  A    between atoms: _403  and  _406
REMARK  169  A    between atoms: _406  and  _407
REMARK  170  A    between atoms: _407  and  _408
REMARK  171  A    between atoms: _408  and  _409
REMARK  172  A    between atoms: _409  and  _410
REMARK  173  A    between atoms: _414  and  _416
REMARK  174  A    between atoms: _416  and  _417
REMARK  175  A    between atoms: _416  and  _419
REMARK  176  A    between atoms: _419  and  _420
REMARK  177  A    between atoms: _420  and  _421
REMARK  178  A    between atoms: _423  and  _425
REMARK  179  A    between atoms: _425  and  _426
REMARK  180  A    between atoms: _425  and  _428
REMARK  181  A    between atoms: _428  and  _429
REMARK  182  A    between atoms: _432  and  _434
REMARK  183  A    between atoms: _434  and  _435
REMARK  184  A    between atoms: _437  and  _439
REMARK  185  A    between atoms: _439  and  _440
REMARK  186  A    between atoms: _442  and  _444
REMARK  187  A    between atoms: _444  and  _445
REMARK  188  A    between atoms: _444  and  _447
REMARK  189  A    between atoms: _447  and  _448
REMARK  190  A    between atoms: _451  and  _453
REMARK  191  A    between atoms: _453  and  _454
REMARK  192  A    between atoms: _456  and  _458
REMARK  193  A    between atoms: _458  and  _459
REMARK  194  A    between atoms: _461  and  _463
REMARK  195  A    between atoms: _463  and  _464
REMARK  196  A    between atoms: _463  and  _466
REMARK  197  A    between atoms: _466  and  _467
REMARK  198  A    between atoms: _473  and  _475
REMARK  199  A    between atoms: _475  and  _476
REMARK  200  A    between atoms: _475  and  _478
REMARK  201  A    between atoms: _478  and  _479
REMARK  202  A    between atoms: _482  and  _484
REMARK  203  A    between atoms: _484  and  _485
REMARK  204  A    between atoms: _484  and  _487
REMARK  205  A    between atoms: _490  and  _492
REMARK  206  A    between atoms: _492  and  _493
REMARK  207  A    between atoms: _492  and  _495
REMARK  208  A    between atoms: _495  and  _496
REMARK  209  A    between atoms: _499  and  _501
REMARK  210  A    between atoms: _501  and  _502
REMARK  211  A    between atoms: _501  and  _504
REMARK  212  A    between atoms: _504  and  _505
REMARK  213  A    between atoms: _509  and  _510
REMARK  214  A    between atoms: _515  and  _517
REMARK  215  A    between atoms: _517  and  _518
REMARK  216  A    between atoms: _517  and  _520
REMARK  217  A    between atoms: _520  and  _521
REMARK  218  A    between atoms: _524  and  _526
REMARK  219  A    between atoms: _526  and  _527
REMARK  220  A    between atoms: _526  and  _529
REMARK  221  A    between atoms: _529  and  _530
REMARK  222  A    between atoms: _535  and  _537
REMARK  223  A    between atoms: _537  and  _538
REMARK  224  A    between atoms: _537  and  _540
REMARK  225  A    between atoms: _543  and  _545
REMARK  226  A    between atoms: _545  and  _546
REMARK  227  A    between atoms: _545  and  _548
REMARK  228  A    between atoms: _548  and  _549
REMARK  229  A    between atoms: _552  and  _554
REMARK  230  A    between atoms: _554  and  _555
REMARK  231  A    between atoms: _557  and  _559
REMARK  232  A    between atoms: _559  and  _560
REMARK  233  A    between atoms: _559  and  _562
REMARK  234  A    between atoms: _562  and  _563
REMARK  235  A    between atoms: _563  and  _564
REMARK  236  A    between atoms: _564  and  _565
REMARK  237  A    between atoms: _574  and  _576
REMARK  238  A    between atoms: _576  and  _577
REMARK  239  A    between atoms: _576  and  _579
REMARK  240  A    between atoms: _579  and  _580
REMARK                            x       y       z     vdW  Elec       q    Type
REMARK                         _______ _______ _______ _____ _____    ______ ____
ROOT
ATOM      1  O   HOH     1      21.557  23.452  10.883  0.00  0.00    +0.000 OA
ENDROOT
TORSDOF 0
REMARK  Name = ../refined-set-2016/2wl0/2wl0_pocket.pdb
REMARK  240 active torsions:
REMARK  status: ('A' for Active; 'I' for Inactive)
REMARK    1  A    between atoms: _1  and  _3
REMARK    2  A    between atoms: _3  and  _4
REMARK    3  A    between atoms: _3  and  _6
REMARK    4  A    between atoms: _6  and  _7
REMARK    5  A    between atoms: _7  and  _8
REMARK    6  A    between atoms: _8  and  _9
REMARK    7  A    between atoms: _18  and  _20
REMARK    8  A    between atoms: _20  and  _21
REMARK    9  A    between atoms: _20  and  _23
REMARK   10  A    between atoms: _23  and  _24
REMARK   11  A    between atoms: _27  and  _29
REMARK   12  A    between atoms: _29  and  _30
REMARK   13  A    between atoms: _29  and  _32
REMARK   14  A    between atoms: _32  and  _33
REMARK   15  A    between atoms: _36  and  _38
REMARK   16  A    between atoms: _38  and  _39
REMARK   17  A    between atoms: _38  and  _41
REMARK   18  A    between atoms: _41  and  _42
REMARK   19  A    between atoms: _45  and  _47
REMARK   20  A    between atoms: _47  and  _48
REMARK   21  A    between atoms: _47  and  _50
REMARK   22  A    between atoms: _50  and  _51
REMARK   23  A    between atoms: _54  and  _56
REMARK   24  A    between atoms: _56  and  _57
REMARK   25  A    between atoms: _59  and  _61
REMARK   26  A    between atoms: _61  and  _62
REMARK   27  A    between atoms: _65  and  _67
REMARK   28  A    between atoms: _67  and  _68
REMARK   29  A    between atoms: _67  and  _70
REMARK   30  A    between atoms: _70  and  _71
REMARK   31  A    between atoms: _74  and  _76
REMARK   32  A    between atoms: _76  and  _77
REMARK   33  A    between atoms: _76  and  _79
REMARK   34  A    between atoms: _79  and  _80
REMARK   35  A    between atoms: _83  and  _85
REMARK   36  A    between atoms: _85  and  _86
REMARK   37  A    between atoms: _85  and  _88
REMARK   38  A    between atoms: _88  and  _89
REMARK   39  A    between atoms: _92  and  _94
REMARK   40  A    between atoms: _94  and  _95
REMARK   41  A    between atoms: _94  and  _97
REMARK   42  A    between atoms: _100  and  _102
REMARK   43  A    between atoms: _102  and  _103
REMARK   44  A    between atoms: _102  and  _105
REMARK   45  A    between atoms: _105  and  _106
REMARK   46  A    between atoms: _109  and  _111
REMARK   47  A    between atoms: _111  and  _112
REMARK   48  A    between atoms: _111  and  _114
REMARK   49  A    between atoms: _114  and  _115
REMARK   50  A    between atoms: _115  and  _116
REMARK   51  A    between atoms: _116  and  _117
REMARK   52  A    between atoms: _117  and  _118
REMARK   53  A    between atoms: _122  and  _124
REMARK   54  A    between atoms: _124  and  _125
REMARK   55  A    between atoms: _124  and  _127
REMARK   56  A    between atoms: _127  and  _128
REMARK   57  A    between atoms: _128  and  _129
REMARK   58  A    between atoms: _131  and  _133
REMARK   59  A    between atoms: _133  and  _134
REMARK   60  A    between atoms: _133  and  _136
REMARK   61  A    between atoms: _136  and  _137
REMARK   62  A    between atoms: _140  and  _142
REMARK   63  A    between atoms: _142  and  _143
REMARK   64  A    between atoms: _145  and  _147
REMARK   65  A    between atoms: _147  and  _148
REMARK   66  A    between atoms: _150  and  _152
REMARK   67  A    between atoms: _152  and  _153
REMARK   68  A    between atoms: _152  and  _155
REMARK   69  A    between atoms: _155  and  _156
REMARK   70  A    between atoms: _159  and  _161
REMARK   71  A    between atoms: _161  and  _162
REMARK   72  A    between atoms: _164  and  _166
REMARK   73  A    between atoms: _166  and  _167
REMARK   74  A    between atoms: _169  and  _171
REMARK   75  A    between atoms: _171  and  _172
REMARK   76  A    between atoms: _171  and  _174
REMARK   77  A    between atoms: _174  and  _175
REMARK   78  A    between atoms: _181  and  _183
REMARK   79  A    between atoms: _183  and  _184
REMARK   80  A    between atoms: _183  and  _186
REMARK   81  A    between atoms: _186  and  _187
REMARK   82  A    between atoms: _190  and  _192
REMARK   83  A    between atoms: _192  and  _193
REMARK   84  A    between atoms: _192  and  _195
REMARK   85  A    between atoms: _198  and  _200
REMARK   86  A    between atoms: _200  and  _201
REMARK   87  A    between atoms: _200  and  _203
REMARK   88  A    between atoms: _203  and  _204
REMARK   89  A    between atoms: _207  and  _209
REMARK   90  A    between atoms: _209  and  _210
REMARK   91  A    between atoms: _209  and  _212
REMARK   92  A    between atoms: _212  and  _213
REMARK   93  A    between atoms: _217  and  _218
REMARK   94  A    between atoms: _223  and  _225
REMARK   95  A    between atoms: _225  and  _226
REMARK   96  A    between atoms: _225  and  _228
REMARK   97  A    between atoms: _228  and  _229
REMARK   98  A    between atoms: _232  and  _234
REMARK   99  A    between atoms: _234  and  _235
REMARK  100  A    between atoms: _234  and  _237
REMARK  101  A    between atoms: _237  and  _238
REMARK  102  A    between atoms: _243  and  _245
REMARK  103  A    between atoms: _245  and  _246
REMARK  104  A    between atoms: _245  and  _248
REMARK  105  A    between atoms: _251  and  _253
REMARK  106  A    between atoms: _253  and  _254
REMARK  107  A    between atoms: _253  and  _256
REMARK  108  A    between atoms: _256  and  _257
REMARK  109  A    between atoms: _260  and  _262
REMARK  110  A    between atoms: _262  and  _263
REMARK  111  A    between atoms: _265  and  _267
REMARK  112  A    between atoms: _267  and  _268
REMARK  113  A    between atoms: _267  and  _270
REMARK  114  A    between atoms: _270  and  _271
REMARK  115  A    between atoms: _271  and  _272
REMARK  116  A    between atoms: _272  and  _273
REMARK  117  A    between atoms: _282  and  _284
REMARK  118  A    between atoms: _284  and  _285
REMARK  119  A    between atoms: _284  and  _287
REMARK  120  A    between atoms: _287  and  _288
REMARK  121  A    between atoms: _293  and  _295
REMARK  122  A    between atoms: _295  and  _296
REMARK  123  A    between atoms: _295  and  _298
REMARK  124  A    between atoms: _298  and  _299
REMARK  125  A    between atoms: _299  and  _300
REMARK  126  A    between atoms: _300  and  _301
REMARK  127  A    between atoms: _310  and  _312
REMARK  128  A    between atoms: _312  and  _313
REMARK  129  A    between atoms: _312  and  _315
REMARK  130  A    between atoms: _315  and  _316
REMARK  131  A    between atoms: _319  and  _321
REMARK  132  A    between atoms: _321  and  _322
REMARK  133  A    between atoms: _321  and  _324
REMARK  134  A    between atoms: _324  and  _325
REMARK  135  A    between atoms: _328  and  _330
REMARK  136  A    between atoms: _330  and  _331
REMARK  137  A    between atoms: _330  and  _333
REMARK  138  A    between atoms: _333  and  _334
REMARK  139  A    between atoms: _337  and  _339
REMARK  140  A    between atoms: _339  and  _340
REMARK  141  A    between atoms: _339  and  _342
REMARK  142  A    between atoms: _342  and  _343
REMARK  143  A    between atoms: _346  and  _348
REMARK  144  A    between atoms: _348  and  _349
REMARK  145  A    between atoms: _348  and  _351
REMARK  146  A    between atoms: _351  and  _352
REMARK  147  A    between atoms: _355  and  _357
REMARK  148  A    between atoms: _357  and  _358
REMARK  149  A    between atoms: _360  and  _362
REMARK  150  A    between atoms: _362  and  _363
REMARK  151  A    between atoms: _366  and  _368
REMARK  152  A    between atoms: _368  and  _369
REMARK  153  A    between atoms: _368  and  _371
REMARK  154  A    between atoms: _371  and  _372
REMARK  155  A    between atoms: _375  and  _377
REMARK  156  A    between atoms: _377  and  _378
REMARK  157  A    between atoms: _377  and  _380
REMARK  158  A    between atoms: _380  and  _381
REMARK  159  A    between atoms: _384  and  _386
REMARK  160  A    between atoms: _386  and  _387
REMARK  161  A    between atoms: _386  and  _389
REMARK  162  A    between atoms: _389  and  _390
REMARK  163  A    between atoms: _393  and  _395
REMARK  164  A    between atoms: _395  and  _396
REMARK  165  A    between atoms: _395  and  _398
REMARK  166  A    between atoms: _401  and  _403
REMARK  167  A    between atoms: _403  and  _404
REMARK  168  A    between atoms: _403  and  _406
REMARK  169  A    between atoms: _406  and  _407
REMARK  170  A    between atoms: _407  and  _408
REMARK  171  A    between atoms: _408  and  _409
REMARK  172  A    between atoms: _409  and  _410
REMARK  173  A    between atoms: _414  and  _416
REMARK  174  A    between atoms: _416  and  _417
REMARK  175  A    between atoms: _416  and  _419
REMARK  176  A    between atoms: _419  and  _420
REMARK  177  A    between atoms: _420  and  _421
REMARK  178  A    between atoms: _423  and  _425
REMARK  179  A    between atoms: _425  and  _426
REMARK  180  A    between atoms: _425  and  _428
REMARK  181  A    between atoms: _428  and  _429
REMARK  182  A    between atoms: _432  and  _434
REMARK  183  A    between atoms: _434  and  _435
REMARK  184  A    between atoms: _437  and  _439
REMARK  185  A    between atoms: _439  and  _440
REMARK  186  A    between atoms: _442  and  _444
REMARK  187  A    between atoms: _444  and  _445
REMARK  188  A    between atoms: _444  and  _447
REMARK  189  A    between atoms: _447  and  _448
REMARK  190  A    between atoms: _451  and  _453
REMARK  191  A    between atoms: _453  and  _454
REMARK  192  A    between atoms: _456  and  _458
REMARK  193  A    between atoms: _458  and  _459
REMARK  194  A    between atoms: _461  and  _463
REMARK  195  A    between atoms: _463  and  _464
REMARK  196  A    between atoms: _463  and  _466
REMARK  197  A    between atoms: _466  and  _467
REMARK  198  A    between atoms: _473  and  _475
REMARK  199  A    between atoms: _475  and  _476
REMARK  200  A    between atoms: _475  and  _478
REMARK  201  A    between atoms: _478  and  _479
REMARK  202  A    between atoms: _482  and  _484
REMARK  203  A    between atoms: _484  and  _485
REMARK  204  A    between atoms: _484  and  _487
REMARK  205  A    between atoms: _490  and  _492
REMARK  206  A    between atoms: _492  and  _493
REMARK  207  A    between atoms: _492  and  _495
REMARK  208  A    between atoms: _495  and  _496
REMARK  209  A    between atoms: _499  and  _501
REMARK  210  A    between atoms: _501  and  _502
REMARK  211  A    between atoms: _501  and  _504
REMARK  212  A    between atoms: _504  and  _505
REMARK  213  A    between atoms: _509  and  _510
REMARK  214  A    between atoms: _515  and  _517
REMARK  215  A    between atoms: _517  and  _518
REMARK  216  A    between atoms: _517  and  _520
REMARK  217  A    between atoms: _520  and  _521
REMARK  218  A    between atoms: _524  and  _526
REMARK  219  A    between atoms: _526  and  _527
REMARK  220  A    between atoms: _526  and  _529
REMARK  221  A    between atoms: _529  and  _530
REMARK  222  A    between atoms: _535  and  _537
REMARK  223  A    between atoms: _537  and  _538
REMARK  224  A    between atoms: _537  and  _540
REMARK  225  A    between atoms: _543  and  _545
REMARK  226  A    between atoms: _545  and  _546
REMARK  227  A    between atoms: _545  and  _548
REMARK  228  A    between atoms: _548  and  _549
REMARK  229  A    between atoms: _552  and  _554
REMARK  230  A    between atoms: _554  and  _555
REMARK  231  A    between atoms: _557  and  _559
REMARK  232  A    between atoms: _559  and  _560
REMARK  233  A    between atoms: _559  and  _562
REMARK  234  A    between atoms: _562  and  _563
REMARK  235  A    between atoms: _563  and  _564
REMARK  236  A    between atoms: _564  and  _565
REMARK  237  A    between atoms: _574  and  _576
REMARK  238  A    between atoms: _576  and  _577
REMARK  239  A    between atoms: _576  and  _579
REMARK  240  A    between atoms: _579  and  _580
REMARK                            x       y       z     vdW  Elec       q    Type
REMARK                         _______ _______ _______ _____ _____    ______ ____
ROOT
ATOM      1  O   HOH     1      23.456  18.262   8.086  0.00  0.00    +0.000 OA
ENDROOT
TORSDOF 0
REMARK  Name = ../refined-set-2016/2wl0/2wl0_pocket.pdb
REMARK  240 active torsions:
REMARK  status: ('A' for Active; 'I' for Inactive)
REMARK    1  A    between atoms: _1  and  _3
REMARK    2  A    between atoms: _3  and  _4
REMARK    3  A    between atoms: _3  and  _6
REMARK    4  A    between atoms: _6  and  _7
REMARK    5  A    between atoms: _7  and  _8
REMARK    6  A    between atoms: _8  and  _9
REMARK    7  A    between atoms: _18  and  _20
REMARK    8  A    between atoms: _20  and  _21
REMARK    9  A    between atoms: _20  and  _23
REMARK   10  A    between atoms: _23  and  _24
REMARK   11  A    between atoms: _27  and  _29
REMARK   12  A    between atoms: _29  and  _30
REMARK   13  A    between atoms: _29  and  _32
REMARK   14  A    between atoms: _32  and  _33
REMARK   15  A    between atoms: _36  and  _38
REMARK   16  A    between atoms: _38  and  _39
REMARK   17  A    between atoms: _38  and  _41
REMARK   18  A    between atoms: _41  and  _42
REMARK   19  A    between atoms: _45  and  _47
REMARK   20  A    between atoms: _47  and  _48
REMARK   21  A    between atoms: _47  and  _50
REMARK   22  A    between atoms: _50  and  _51
REMARK   23  A    between atoms: _54  and  _56
REMARK   24  A    between atoms: _56  and  _57
REMARK   25  A    between atoms: _59  and  _61
REMARK   26  A    between atoms: _61  and  _62
REMARK   27  A    between atoms: _65  and  _67
REMARK   28  A    between atoms: _67  and  _68
REMARK   29  A    between atoms: _67  and  _70
REMARK   30  A    between atoms: _70  and  _71
REMARK   31  A    between atoms: _74  and  _76
REMARK   32  A    between atoms: _76  and  _77
REMARK   33  A    between atoms: _76  and  _79
REMARK   34  A    between atoms: _79  and  _80
REMARK   35  A    between atoms: _83  and  _85
REMARK   36  A    between atoms: _85  and  _86
REMARK   37  A    between atoms: _85  and  _88
REMARK   38  A    between atoms: _88  and  _89
REMARK   39  A    between atoms: _92  and  _94
REMARK   40  A    between atoms: _94  and  _95
REMARK   41  A    between atoms: _94  and  _97
REMARK   42  A    between atoms: _100  and  _102
REMARK   43  A    between atoms: _102  and  _103
REMARK   44  A    between atoms: _102  and  _105
REMARK   45  A    between atoms: _105  and  _106
REMARK   46  A    between atoms: _109  and  _111
REMARK   47  A    between atoms: _111  and  _112
REMARK   48  A    between atoms: _111  and  _114
REMARK   49  A    between atoms: _114  and  _115
REMARK   50  A    between atoms: _115  and  _116
REMARK   51  A    between atoms: _116  and  _117
REMARK   52  A    between atoms: _117  and  _118
REMARK   53  A    between atoms: _122  and  _124
REMARK   54  A    between atoms: _124  and  _125
REMARK   55  A    between atoms: _124  and  _127
REMARK   56  A    between atoms: _127  and  _128
REMARK   57  A    between atoms: _128  and  _129
REMARK   58  A    between atoms: _131  and  _133
REMARK   59  A    between atoms: _133  and  _134
REMARK   60  A    between atoms: _133  and  _136
REMARK   61  A    between atoms: _136  and  _137
REMARK   62  A    between atoms: _140  and  _142
REMARK   63  A    between atoms: _142  and  _143
REMARK   64  A    between atoms: _145  and  _147
REMARK   65  A    between atoms: _147  and  _148
REMARK   66  A    between atoms: _150  and  _152
REMARK   67  A    between atoms: _152  and  _153
REMARK   68  A    between atoms: _152  and  _155
REMARK   69  A    between atoms: _155  and  _156
REMARK   70  A    between atoms: _159  and  _161
REMARK   71  A    between atoms: _161  and  _162
REMARK   72  A    between atoms: _164  and  _166
REMARK   73  A    between atoms: _166  and  _167
REMARK   74  A    between atoms: _169  and  _171
REMARK   75  A    between atoms: _171  and  _172
REMARK   76  A    between atoms: _171  and  _174
REMARK   77  A    between atoms: _174  and  _175
REMARK   78  A    between atoms: _181  and  _183
REMARK   79  A    between atoms: _183  and  _184
REMARK   80  A    between atoms: _183  and  _186
REMARK   81  A    between atoms: _186  and  _187
REMARK   82  A    between atoms: _190  and  _192
REMARK   83  A    between atoms: _192  and  _193
REMARK   84  A    between atoms: _192  and  _195
REMARK   85  A    between atoms: _198  and  _200
REMARK   86  A    between atoms: _200  and  _201
REMARK   87  A    between atoms: _200  and  _203
REMARK   88  A    between atoms: _203  and  _204
REMARK   89  A    between atoms: _207  and  _209
REMARK   90  A    between atoms: _209  and  _210
REMARK   91  A    between atoms: _209  and  _212
REMARK   92  A    between atoms: _212  and  _213
REMARK   93  A    between atoms: _217  and  _218
REMARK   94  A    between atoms: _223  and  _225
REMARK   95  A    between atoms: _225  and  _226
REMARK   96  A    between atoms: _225  and  _228
REMARK   97  A    between atoms: _228  and  _229
REMARK   98  A    between atoms: _232  and  _234
REMARK   99  A    between atoms: _234  and  _235
REMARK  100  A    between atoms: _234  and  _237
REMARK  101  A    between atoms: _237  and  _238
REMARK  102  A    between atoms: _243  and  _245
REMARK  103  A    between atoms: _245  and  _246
REMARK  104  A    between atoms: _245  and  _248
REMARK  105  A    between atoms: _251  and  _253
REMARK  106  A    between atoms: _253  and  _254
REMARK  107  A    between atoms: _253  and  _256
REMARK  108  A    between atoms: _256  and  _257
REMARK  109  A    between atoms: _260  and  _262
REMARK  110  A    between atoms: _262  and  _263
REMARK  111  A    between atoms: _265  and  _267
REMARK  112  A    between atoms: _267  and  _268
REMARK  113  A    between atoms: _267  and  _270
REMARK  114  A    between atoms: _270  and  _271
REMARK  115  A    between atoms: _271  and  _272
REMARK  116  A    between atoms: _272  and  _273
REMARK  117  A    between atoms: _282  and  _284
REMARK  118  A    between atoms: _284  and  _285
REMARK  119  A    between atoms: _284  and  _287
REMARK  120  A    between atoms: _287  and  _288
REMARK  121  A    between atoms: _293  and  _295
REMARK  122  A    between atoms: _295  and  _296
REMARK  123  A    between atoms: _295  and  _298
REMARK  124  A    between atoms: _298  and  _299
REMARK  125  A    between atoms: _299  and  _300
REMARK  126  A    between atoms: _300  and  _301
REMARK  127  A    between atoms: _310  and  _312
REMARK  128  A    between atoms: _312  and  _313
REMARK  129  A    between atoms: _312  and  _315
REMARK  130  A    between atoms: _315  and  _316
REMARK  131  A    between atoms: _319  and  _321
REMARK  132  A    between atoms: _321  and  _322
REMARK  133  A    between atoms: _321  and  _324
REMARK  134  A    between atoms: _324  and  _325
REMARK  135  A    between atoms: _328  and  _330
REMARK  136  A    between atoms: _330  and  _331
REMARK  137  A    between atoms: _330  and  _333
REMARK  138  A    between atoms: _333  and  _334
REMARK  139  A    between atoms: _337  and  _339
REMARK  140  A    between atoms: _339  and  _340
REMARK  141  A    between atoms: _339  and  _342
REMARK  142  A    between atoms: _342  and  _343
REMARK  143  A    between atoms: _346  and  _348
REMARK  144  A    between atoms: _348  and  _349
REMARK  145  A    between atoms: _348  and  _351
REMARK  146  A    between atoms: _351  and  _352
REMARK  147  A    between atoms: _355  and  _357
REMARK  148  A    between atoms: _357  and  _358
REMARK  149  A    between atoms: _360  and  _362
REMARK  150  A    between atoms: _362  and  _363
REMARK  151  A    between atoms: _366  and  _368
REMARK  152  A    between atoms: _368  and  _369
REMARK  153  A    between atoms: _368  and  _371
REMARK  154  A    between atoms: _371  and  _372
REMARK  155  A    between atoms: _375  and  _377
REMARK  156  A    between atoms: _377  and  _378
REMARK  157  A    between atoms: _377  and  _380
REMARK  158  A    between atoms: _380  and  _381
REMARK  159  A    between atoms: _384  and  _386
REMARK  160  A    between atoms: _386  and  _387
REMARK  161  A    between atoms: _386  and  _389
REMARK  162  A    between atoms: _389  and  _390
REMARK  163  A    between atoms: _393  and  _395
REMARK  164  A    between atoms: _395  and  _396
REMARK  165  A    between atoms: _395  and  _398
REMARK  166  A    between atoms: _401  and  _403
REMARK  167  A    between atoms: _403  and  _404
REMARK  168  A    between atoms: _403  and  _406
REMARK  169  A    between atoms: _406  and  _407
REMARK  170  A    between atoms: _407  and  _408
REMARK  171  A    between atoms: _408  and  _409
REMARK  172  A    between atoms: _409  and  _410
REMARK  173  A    between atoms: _414  and  _416
REMARK  174  A    between atoms: _416  and  _417
REMARK  175  A    between atoms: _416  and  _419
REMARK  176  A    between atoms: _419  and  _420
REMARK  177  A    between atoms: _420  and  _421
REMARK  178  A    between atoms: _423  and  _425
REMARK  179  A    between atoms: _425  and  _426
REMARK  180  A    between atoms: _425  and  _428
REMARK  181  A    between atoms: _428  and  _429
REMARK  182  A    between atoms: _432  and  _434
REMARK  183  A    between atoms: _434  and  _435
REMARK  184  A    between atoms: _437  and  _439
REMARK  185  A    between atoms: _439  and  _440
REMARK  186  A    between atoms: _442  and  _444
REMARK  187  A    between atoms: _444  and  _445
REMARK  188  A    between atoms: _444  and  _447
REMARK  189  A    between atoms: _447  and  _448
REMARK  190  A    between atoms: _451  and  _453
REMARK  191  A    between atoms: _453  and  _454
REMARK  192  A    between atoms: _456  and  _458
REMARK  193  A    between atoms: _458  and  _459
REMARK  194  A    between atoms: _461  and  _463
REMARK  195  A    between atoms: _463  and  _464
REMARK  196  A    between atoms: _463  and  _466
REMARK  197  A    between atoms: _466  and  _467
REMARK  198  A    between atoms: _473  and  _475
REMARK  199  A    between atoms: _475  and  _476
REMARK  200  A    between atoms: _475  and  _478
REMARK  201  A    between atoms: _478  and  _479
REMARK  202  A    between atoms: _482  and  _484
REMARK  203  A    between atoms: _484  and  _485
REMARK  204  A    between atoms: _484  and  _487
REMARK  205  A    between atoms: _490  and  _492
REMARK  206  A    between atoms: _492  and  _493
REMARK  207  A    between atoms: _492  and  _495
REMARK  208  A    between atoms: _495  and  _496
REMARK  209  A    between atoms: _499  and  _501
REMARK  210  A    between atoms: _501  and  _502
REMARK  211  A    between atoms: _501  and  _504
REMARK  212  A    between atoms: _504  and  _505
REMARK  213  A    between atoms: _509  and  _510
REMARK  214  A    between atoms: _515  and  _517
REMARK  215  A    between atoms: _517  and  _518
REMARK  216  A    between atoms: _517  and  _520
REMARK  217  A    between atoms: _520  and  _521
REMARK  218  A    between atoms: _524  and  _526
REMARK  219  A    between atoms: _526  and  _527
REMARK  220  A    between atoms: _526  and  _529
REMARK  221  A    between atoms: _529  and  _530
REMARK  222  A    between atoms: _535  and  _537
REMARK  223  A    between atoms: _537  and  _538
REMARK  224  A    between atoms: _537  and  _540
REMARK  225  A    between atoms: _543  and  _545
REMARK  226  A    between atoms: _545  and  _546
REMARK  227  A    between atoms: _545  and  _548
REMARK  228  A    between atoms: _548  and  _549
REMARK  229  A    between atoms: _552  and  _554
REMARK  230  A    between atoms: _554  and  _555
REMARK  231  A    between atoms: _557  and  _559
REMARK  232  A    between atoms: _559  and  _560
REMARK  233  A    between atoms: _559  and  _562
REMARK  234  A    between atoms: _562  and  _563
REMARK  235  A    between atoms: _563  and  _564
REMARK  236  A    between atoms: _564  and  _565
REMARK  237  A    between atoms: _574  and  _576
REMARK  238  A    between atoms: _576  and  _577
REMARK  239  A    between atoms: _576  and  _579
REMARK  240  A    between atoms: _579  and  _580
REMARK                            x       y       z     vdW  Elec       q    Type
REMARK                         _______ _______ _______ _____ _____    ______ ____
ROOT
ATOM      1  O   HOH     1       9.153  28.629   2.258  0.00  0.00    +0.000 OA
ENDROOT
TORSDOF 0
REMARK  Name = ../refined-set-2016/2wl0/2wl0_pocket.pdb
REMARK  240 active torsions:
REMARK  status: ('A' for Active; 'I' for Inactive)
REMARK    1  A    between atoms: _1  and  _3
REMARK    2  A    between atoms: _3  and  _4
REMARK    3  A    between atoms: _3  and  _6
REMARK    4  A    between atoms: _6  and  _7
REMARK    5  A    between atoms: _7  and  _8
REMARK    6  A    between atoms: _8  and  _9
REMARK    7  A    between atoms: _18  and  _20
REMARK    8  A    between atoms: _20  and  _21
REMARK    9  A    between atoms: _20  and  _23
REMARK   10  A    between atoms: _23  and  _24
REMARK   11  A    between atoms: _27  and  _29
REMARK   12  A    between atoms: _29  and  _30
REMARK   13  A    between atoms: _29  and  _32
REMARK   14  A    between atoms: _32  and  _33
REMARK   15  A    between atoms: _36  and  _38
REMARK   16  A    between atoms: _38  and  _39
REMARK   17  A    between atoms: _38  and  _41
REMARK   18  A    between atoms: _41  and  _42
REMARK   19  A    between atoms: _45  and  _47
REMARK   20  A    between atoms: _47  and  _48
REMARK   21  A    between atoms: _47  and  _50
REMARK   22  A    between atoms: _50  and  _51
REMARK   23  A    between atoms: _54  and  _56
REMARK   24  A    between atoms: _56  and  _57
REMARK   25  A    between atoms: _59  and  _61
REMARK   26  A    between atoms: _61  and  _62
REMARK   27  A    between atoms: _65  and  _67
REMARK   28  A    between atoms: _67  and  _68
REMARK   29  A    between atoms: _67  and  _70
REMARK   30  A    between atoms: _70  and  _71
REMARK   31  A    between atoms: _74  and  _76
REMARK   32  A    between atoms: _76  and  _77
REMARK   33  A    between atoms: _76  and  _79
REMARK   34  A    between atoms: _79  and  _80
REMARK   35  A    between atoms: _83  and  _85
REMARK   36  A    between atoms: _85  and  _86
REMARK   37  A    between atoms: _85  and  _88
REMARK   38  A    between atoms: _88  and  _89
REMARK   39  A    between atoms: _92  and  _94
REMARK   40  A    between atoms: _94  and  _95
REMARK   41  A    between atoms: _94  and  _97
REMARK   42  A    between atoms: _100  and  _102
REMARK   43  A    between atoms: _102  and  _103
REMARK   44  A    between atoms: _102  and  _105
REMARK   45  A    between atoms: _105  and  _106
REMARK   46  A    between atoms: _109  and  _111
REMARK   47  A    between atoms: _111  and  _112
REMARK   48  A    between atoms: _111  and  _114
REMARK   49  A    between atoms: _114  and  _115
REMARK   50  A    between atoms: _115  and  _116
REMARK   51  A    between atoms: _116  and  _117
REMARK   52  A    between atoms: _117  and  _118
REMARK   53  A    between atoms: _122  and  _124
REMARK   54  A    between atoms: _124  and  _125
REMARK   55  A    between atoms: _124  and  _127
REMARK   56  A    between atoms: _127  and  _128
REMARK   57  A    between atoms: _128  and  _129
REMARK   58  A    between atoms: _131  and  _133
REMARK   59  A    between atoms: _133  and  _134
REMARK   60  A    between atoms: _133  and  _136
REMARK   61  A    between atoms: _136  and  _137
REMARK   62  A    between atoms: _140  and  _142
REMARK   63  A    between atoms: _142  and  _143
REMARK   64  A    between atoms: _145  and  _147
REMARK   65  A    between atoms: _147  and  _148
REMARK   66  A    between atoms: _150  and  _152
REMARK   67  A    between atoms: _152  and  _153
REMARK   68  A    between atoms: _152  and  _155
REMARK   69  A    between atoms: _155  and  _156
REMARK   70  A    between atoms: _159  and  _161
REMARK   71  A    between atoms: _161  and  _162
REMARK   72  A    between atoms: _164  and  _166
REMARK   73  A    between atoms: _166  and  _167
REMARK   74  A    between atoms: _169  and  _171
REMARK   75  A    between atoms: _171  and  _172
REMARK   76  A    between atoms: _171  and  _174
REMARK   77  A    between atoms: _174  and  _175
REMARK   78  A    between atoms: _181  and  _183
REMARK   79  A    between atoms: _183  and  _184
REMARK   80  A    between atoms: _183  and  _186
REMARK   81  A    between atoms: _186  and  _187
REMARK   82  A    between atoms: _190  and  _192
REMARK   83  A    between atoms: _192  and  _193
REMARK   84  A    between atoms: _192  and  _195
REMARK   85  A    between atoms: _198  and  _200
REMARK   86  A    between atoms: _200  and  _201
REMARK   87  A    between atoms: _200  and  _203
REMARK   88  A    between atoms: _203  and  _204
REMARK   89  A    between atoms: _207  and  _209
REMARK   90  A    between atoms: _209  and  _210
REMARK   91  A    between atoms: _209  and  _212
REMARK   92  A    between atoms: _212  and  _213
REMARK   93  A    between atoms: _217  and  _218
REMARK   94  A    between atoms: _223  and  _225
REMARK   95  A    between atoms: _225  and  _226
REMARK   96  A    between atoms: _225  and  _228
REMARK   97  A    between atoms: _228  and  _229
REMARK   98  A    between atoms: _232  and  _234
REMARK   99  A    between atoms: _234  and  _235
REMARK  100  A    between atoms: _234  and  _237
REMARK  101  A    between atoms: _237  and  _238
REMARK  102  A    between atoms: _243  and  _245
REMARK  103  A    between atoms: _245  and  _246
REMARK  104  A    between atoms: _245  and  _248
REMARK  105  A    between atoms: _251  and  _253
REMARK  106  A    between atoms: _253  and  _254
REMARK  107  A    between atoms: _253  and  _256
REMARK  108  A    between atoms: _256  and  _257
REMARK  109  A    between atoms: _260  and  _262
REMARK  110  A    between atoms: _262  and  _263
REMARK  111  A    between atoms: _265  and  _267
REMARK  112  A    between atoms: _267  and  _268
REMARK  113  A    between atoms: _267  and  _270
REMARK  114  A    between atoms: _270  and  _271
REMARK  115  A    between atoms: _271  and  _272
REMARK  116  A    between atoms: _272  and  _273
REMARK  117  A    between atoms: _282  and  _284
REMARK  118  A    between atoms: _284  and  _285
REMARK  119  A    between atoms: _284  and  _287
REMARK  120  A    between atoms: _287  and  _288
REMARK  121  A    between atoms: _293  and  _295
REMARK  122  A    between atoms: _295  and  _296
REMARK  123  A    between atoms: _295  and  _298
REMARK  124  A    between atoms: _298  and  _299
REMARK  125  A    between atoms: _299  and  _300
REMARK  126  A    between atoms: _300  and  _301
REMARK  127  A    between atoms: _310  and  _312
REMARK  128  A    between atoms: _312  and  _313
REMARK  129  A    between atoms: _312  and  _315
REMARK  130  A    between atoms: _315  and  _316
REMARK  131  A    between atoms: _319  and  _321
REMARK  132  A    between atoms: _321  and  _322
REMARK  133  A    between atoms: _321  and  _324
REMARK  134  A    between atoms: _324  and  _325
REMARK  135  A    between atoms: _328  and  _330
REMARK  136  A    between atoms: _330  and  _331
REMARK  137  A    between atoms: _330  and  _333
REMARK  138  A    between atoms: _333  and  _334
REMARK  139  A    between atoms: _337  and  _339
REMARK  140  A    between atoms: _339  and  _340
REMARK  141  A    between atoms: _339  and  _342
REMARK  142  A    between atoms: _342  and  _343
REMARK  143  A    between atoms: _346  and  _348
REMARK  144  A    between atoms: _348  and  _349
REMARK  145  A    between atoms: _348  and  _351
REMARK  146  A    between atoms: _351  and  _352
REMARK  147  A    between atoms: _355  and  _357
REMARK  148  A    between atoms: _357  and  _358
REMARK  149  A    between atoms: _360  and  _362
REMARK  150  A    between atoms: _362  and  _363
REMARK  151  A    between atoms: _366  and  _368
REMARK  152  A    between atoms: _368  and  _369
REMARK  153  A    between atoms: _368  and  _371
REMARK  154  A    between atoms: _371  and  _372
REMARK  155  A    between atoms: _375  and  _377
REMARK  156  A    between atoms: _377  and  _378
REMARK  157  A    between atoms: _377  and  _380
REMARK  158  A    between atoms: _380  and  _381
REMARK  159  A    between atoms: _384  and  _386
REMARK  160  A    between atoms: _386  and  _387
REMARK  161  A    between atoms: _386  and  _389
REMARK  162  A    between atoms: _389  and  _390
REMARK  163  A    between atoms: _393  and  _395
REMARK  164  A    between atoms: _395  and  _396
REMARK  165  A    between atoms: _395  and  _398
REMARK  166  A    between atoms: _401  and  _403
REMARK  167  A    between atoms: _403  and  _404
REMARK  168  A    between atoms: _403  and  _406
REMARK  169  A    between atoms: _406  and  _407
REMARK  170  A    between atoms: _407  and  _408
REMARK  171  A    between atoms: _408  and  _409
REMARK  172  A    between atoms: _409  and  _410
REMARK  173  A    between atoms: _414  and  _416
REMARK  174  A    between atoms: _416  and  _417
REMARK  175  A    between atoms: _416  and  _419
REMARK  176  A    between atoms: _419  and  _420
REMARK  177  A    between atoms: _420  and  _421
REMARK  178  A    between atoms: _423  and  _425
REMARK  179  A    between atoms: _425  and  _426
REMARK  180  A    between atoms: _425  and  _428
REMARK  181  A    between atoms: _428  and  _429
REMARK  182  A    between atoms: _432  and  _434
REMARK  183  A    between atoms: _434  and  _435
REMARK  184  A    between atoms: _437  and  _439
REMARK  185  A    between atoms: _439  and  _440
REMARK  186  A    between atoms: _442  and  _444
REMARK  187  A    between atoms: _444  and  _445
REMARK  188  A    between atoms: _444  and  _447
REMARK  189  A    between atoms: _447  and  _448
REMARK  190  A    between atoms: _451  and  _453
REMARK  191  A    between atoms: _453  and  _454
REMARK  192  A    between atoms: _456  and  _458
REMARK  193  A    between atoms: _458  and  _459
REMARK  194  A    between atoms: _461  and  _463
REMARK  195  A    between atoms: _463  and  _464
REMARK  196  A    between atoms: _463  and  _466
REMARK  197  A    between atoms: _466  and  _467
REMARK  198  A    between atoms: _473  and  _475
REMARK  199  A    between atoms: _475  and  _476
REMARK  200  A    between atoms: _475  and  _478
REMARK  201  A    between atoms: _478  and  _479
REMARK  202  A    between atoms: _482  and  _484
REMARK  203  A    between atoms: _484  and  _485
REMARK  204  A    between atoms: _484  and  _487
REMARK  205  A    between atoms: _490  and  _492
REMARK  206  A    between atoms: _492  and  _493
REMARK  207  A    between atoms: _492  and  _495
REMARK  208  A    between atoms: _495  and  _496
REMARK  209  A    between atoms: _499  and  _501
REMARK  210  A    between atoms: _501  and  _502
REMARK  211  A    between atoms: _501  and  _504
REMARK  212  A    between atoms: _504  and  _505
REMARK  213  A    between atoms: _509  and  _510
REMARK  214  A    between atoms: _515  and  _517
REMARK  215  A    between atoms: _517  and  _518
REMARK  216  A    between atoms: _517  and  _520
REMARK  217  A    between atoms: _520  and  _521
REMARK  218  A    between atoms: _524  and  _526
REMARK  219  A    between atoms: _526  and  _527
REMARK  220  A    between atoms: _526  and  _529
REMARK  221  A    between atoms: _529  and  _530
REMARK  222  A    between atoms: _535  and  _537
REMARK  223  A    between atoms: _537  and  _538
REMARK  224  A    between atoms: _537  and  _540
REMARK  225  A    between atoms: _543  and  _545
REMARK  226  A    between atoms: _545  and  _546
REMARK  227  A    between atoms: _545  and  _548
REMARK  228  A    between atoms: _548  and  _549
REMARK  229  A    between atoms: _552  and  _554
REMARK  230  A    between atoms: _554  and  _555
REMARK  231  A    between atoms: _557  and  _559
REMARK  232  A    between atoms: _559  and  _560
REMARK  233  A    between atoms: _559  and  _562
REMARK  234  A    between atoms: _562  and  _563
REMARK  235  A    between atoms: _563  and  _564
REMARK  236  A    between atoms: _564  and  _565
REMARK  237  A    between atoms: _574  and  _576
REMARK  238  A    between atoms: _576  and  _577
REMARK  239  A    between atoms: _576  and  _579
REMARK  240  A    between atoms: _579  and  _580
REMARK                            x       y       z     vdW  Elec       q    Type
REMARK                         _______ _______ _______ _____ _____    ______ ____
ROOT
ATOM      1  O   HOH     1       3.842  29.937   5.995  0.00  0.00    +0.000 OA
ENDROOT
TORSDOF 0
REMARK  Name = ../refined-set-2016/2wl0/2wl0_pocket.pdb
REMARK  240 active torsions:
REMARK  status: ('A' for Active; 'I' for Inactive)
REMARK    1  A    between atoms: _1  and  _3
REMARK    2  A    between atoms: _3  and  _4
REMARK    3  A    between atoms: _3  and  _6
REMARK    4  A    between atoms: _6  and  _7
REMARK    5  A    between atoms: _7  and  _8
REMARK    6  A    between atoms: _8  and  _9
REMARK    7  A    between atoms: _18  and  _20
REMARK    8  A    between atoms: _20  and  _21
REMARK    9  A    between atoms: _20  and  _23
REMARK   10  A    between atoms: _23  and  _24
REMARK   11  A    between atoms: _27  and  _29
REMARK   12  A    between atoms: _29  and  _30
REMARK   13  A    between atoms: _29  and  _32
REMARK   14  A    between atoms: _32  and  _33
REMARK   15  A    between atoms: _36  and  _38
REMARK   16  A    between atoms: _38  and  _39
REMARK   17  A    between atoms: _38  and  _41
REMARK   18  A    between atoms: _41  and  _42
REMARK   19  A    between atoms: _45  and  _47
REMARK   20  A    between atoms: _47  and  _48
REMARK   21  A    between atoms: _47  and  _50
REMARK   22  A    between atoms: _50  and  _51
REMARK   23  A    between atoms: _54  and  _56
REMARK   24  A    between atoms: _56  and  _57
REMARK   25  A    between atoms: _59  and  _61
REMARK   26  A    between atoms: _61  and  _62
REMARK   27  A    between atoms: _65  and  _67
REMARK   28  A    between atoms: _67  and  _68
REMARK   29  A    between atoms: _67  and  _70
REMARK   30  A    between atoms: _70  and  _71
REMARK   31  A    between atoms: _74  and  _76
REMARK   32  A    between atoms: _76  and  _77
REMARK   33  A    between atoms: _76  and  _79
REMARK   34  A    between atoms: _79  and  _80
REMARK   35  A    between atoms: _83  and  _85
REMARK   36  A    between atoms: _85  and  _86
REMARK   37  A    between atoms: _85  and  _88
REMARK   38  A    between atoms: _88  and  _89
REMARK   39  A    between atoms: _92  and  _94
REMARK   40  A    between atoms: _94  and  _95
REMARK   41  A    between atoms: _94  and  _97
REMARK   42  A    between atoms: _100  and  _102
REMARK   43  A    between atoms: _102  and  _103
REMARK   44  A    between atoms: _102  and  _105
REMARK   45  A    between atoms: _105  and  _106
REMARK   46  A    between atoms: _109  and  _111
REMARK   47  A    between atoms: _111  and  _112
REMARK   48  A    between atoms: _111  and  _114
REMARK   49  A    between atoms: _114  and  _115
REMARK   50  A    between atoms: _115  and  _116
REMARK   51  A    between atoms: _116  and  _117
REMARK   52  A    between atoms: _117  and  _118
REMARK   53  A    between atoms: _122  and  _124
REMARK   54  A    between atoms: _124  and  _125
REMARK   55  A    between atoms: _124  and  _127
REMARK   56  A    between atoms: _127  and  _128
REMARK   57  A    between atoms: _128  and  _129
REMARK   58  A    between atoms: _131  and  _133
REMARK   59  A    between atoms: _133  and  _134
REMARK   60  A    between atoms: _133  and  _136
REMARK   61  A    between atoms: _136  and  _137
REMARK   62  A    between atoms: _140  and  _142
REMARK   63  A    between atoms: _142  and  _143
REMARK   64  A    between atoms: _145  and  _147
REMARK   65  A    between atoms: _147  and  _148
REMARK   66  A    between atoms: _150  and  _152
REMARK   67  A    between atoms: _152  and  _153
REMARK   68  A    between atoms: _152  and  _155
REMARK   69  A    between atoms: _155  and  _156
REMARK   70  A    between atoms: _159  and  _161
REMARK   71  A    between atoms: _161  and  _162
REMARK   72  A    between atoms: _164  and  _166
REMARK   73  A    between atoms: _166  and  _167
REMARK   74  A    between atoms: _169  and  _171
REMARK   75  A    between atoms: _171  and  _172
REMARK   76  A    between atoms: _171  and  _174
REMARK   77  A    between atoms: _174  and  _175
REMARK   78  A    between atoms: _181  and  _183
REMARK   79  A    between atoms: _183  and  _184
REMARK   80  A    between atoms: _183  and  _186
REMARK   81  A    between atoms: _186  and  _187
REMARK   82  A    between atoms: _190  and  _192
REMARK   83  A    between atoms: _192  and  _193
REMARK   84  A    between atoms: _192  and  _195
REMARK   85  A    between atoms: _198  and  _200
REMARK   86  A    between atoms: _200  and  _201
REMARK   87  A    between atoms: _200  and  _203
REMARK   88  A    between atoms: _203  and  _204
REMARK   89  A    between atoms: _207  and  _209
REMARK   90  A    between atoms: _209  and  _210
REMARK   91  A    between atoms: _209  and  _212
REMARK   92  A    between atoms: _212  and  _213
REMARK   93  A    between atoms: _217  and  _218
REMARK   94  A    between atoms: _223  and  _225
REMARK   95  A    between atoms: _225  and  _226
REMARK   96  A    between atoms: _225  and  _228
REMARK   97  A    between atoms: _228  and  _229
REMARK   98  A    between atoms: _232  and  _234
REMARK   99  A    between atoms: _234  and  _235
REMARK  100  A    between atoms: _234  and  _237
REMARK  101  A    between atoms: _237  and  _238
REMARK  102  A    between atoms: _243  and  _245
REMARK  103  A    between atoms: _245  and  _246
REMARK  104  A    between atoms: _245  and  _248
REMARK  105  A    between atoms: _251  and  _253
REMARK  106  A    between atoms: _253  and  _254
REMARK  107  A    between atoms: _253  and  _256
REMARK  108  A    between atoms: _256  and  _257
REMARK  109  A    between atoms: _260  and  _262
REMARK  110  A    between atoms: _262  and  _263
REMARK  111  A    between atoms: _265  and  _267
REMARK  112  A    between atoms: _267  and  _268
REMARK  113  A    between atoms: _267  and  _270
REMARK  114  A    between atoms: _270  and  _271
REMARK  115  A    between atoms: _271  and  _272
REMARK  116  A    between atoms: _272  and  _273
REMARK  117  A    between atoms: _282  and  _284
REMARK  118  A    between atoms: _284  and  _285
REMARK  119  A    between atoms: _284  and  _287
REMARK  120  A    between atoms: _287  and  _288
REMARK  121  A    between atoms: _293  and  _295
REMARK  122  A    between atoms: _295  and  _296
REMARK  123  A    between atoms: _295  and  _298
REMARK  124  A    between atoms: _298  and  _299
REMARK  125  A    between atoms: _299  and  _300
REMARK  126  A    between atoms: _300  and  _301
REMARK  127  A    between atoms: _310  and  _312
REMARK  128  A    between atoms: _312  and  _313
REMARK  129  A    between atoms: _312  and  _315
REMARK  130  A    between atoms: _315  and  _316
REMARK  131  A    between atoms: _319  and  _321
REMARK  132  A    between atoms: _321  and  _322
REMARK  133  A    between atoms: _321  and  _324
REMARK  134  A    between atoms: _324  and  _325
REMARK  135  A    between atoms: _328  and  _330
REMARK  136  A    between atoms: _330  and  _331
REMARK  137  A    between atoms: _330  and  _333
REMARK  138  A    between atoms: _333  and  _334
REMARK  139  A    between atoms: _337  and  _339
REMARK  140  A    between atoms: _339  and  _340
REMARK  141  A    between atoms: _339  and  _342
REMARK  142  A    between atoms: _342  and  _343
REMARK  143  A    between atoms: _346  and  _348
REMARK  144  A    between atoms: _348  and  _349
REMARK  145  A    between atoms: _348  and  _351
REMARK  146  A    between atoms: _351  and  _352
REMARK  147  A    between atoms: _355  and  _357
REMARK  148  A    between atoms: _357  and  _358
REMARK  149  A    between atoms: _360  and  _362
REMARK  150  A    between atoms: _362  and  _363
REMARK  151  A    between atoms: _366  and  _368
REMARK  152  A    between atoms: _368  and  _369
REMARK  153  A    between atoms: _368  and  _371
REMARK  154  A    between atoms: _371  and  _372
REMARK  155  A    between atoms: _375  and  _377
REMARK  156  A    between atoms: _377  and  _378
REMARK  157  A    between atoms: _377  and  _380
REMARK  158  A    between atoms: _380  and  _381
REMARK  159  A    between atoms: _384  and  _386
REMARK  160  A    between atoms: _386  and  _387
REMARK  161  A    between atoms: _386  and  _389
REMARK  162  A    between atoms: _389  and  _390
REMARK  163  A    between atoms: _393  and  _395
REMARK  164  A    between atoms: _395  and  _396
REMARK  165  A    between atoms: _395  and  _398
REMARK  166  A    between atoms: _401  and  _403
REMARK  167  A    between atoms: _403  and  _404
REMARK  168  A    between atoms: _403  and  _406
REMARK  169  A    between atoms: _406  and  _407
REMARK  170  A    between atoms: _407  and  _408
REMARK  171  A    between atoms: _408  and  _409
REMARK  172  A    between atoms: _409  and  _410
REMARK  173  A    between atoms: _414  and  _416
REMARK  174  A    between atoms: _416  and  _417
REMARK  175  A    between atoms: _416  and  _419
REMARK  176  A    between atoms: _419  and  _420
REMARK  177  A    between atoms: _420  and  _421
REMARK  178  A    between atoms: _423  and  _425
REMARK  179  A    between atoms: _425  and  _426
REMARK  180  A    between atoms: _425  and  _428
REMARK  181  A    between atoms: _428  and  _429
REMARK  182  A    between atoms: _432  and  _434
REMARK  183  A    between atoms: _434  and  _435
REMARK  184  A    between atoms: _437  and  _439
REMARK  185  A    between atoms: _439  and  _440
REMARK  186  A    between atoms: _442  and  _444
REMARK  187  A    between atoms: _444  and  _445
REMARK  188  A    between atoms: _444  and  _447
REMARK  189  A    between atoms: _447  and  _448
REMARK  190  A    between atoms: _451  and  _453
REMARK  191  A    between atoms: _453  and  _454
REMARK  192  A    between atoms: _456  and  _458
REMARK  193  A    between atoms: _458  and  _459
REMARK  194  A    between atoms: _461  and  _463
REMARK  195  A    between atoms: _463  and  _464
REMARK  196  A    between atoms: _463  and  _466
REMARK  197  A    between atoms: _466  and  _467
REMARK  198  A    between atoms: _473  and  _475
REMARK  199  A    between atoms: _475  and  _476
REMARK  200  A    between atoms: _475  and  _478
REMARK  201  A    between atoms: _478  and  _479
REMARK  202  A    between atoms: _482  and  _484
REMARK  203  A    between atoms: _484  and  _485
REMARK  204  A    between atoms: _484  and  _487
REMARK  205  A    between atoms: _490  and  _492
REMARK  206  A    between atoms: _492  and  _493
REMARK  207  A    between atoms: _492  and  _495
REMARK  208  A    between atoms: _495  and  _496
REMARK  209  A    between atoms: _499  and  _501
REMARK  210  A    between atoms: _501  and  _502
REMARK  211  A    between atoms: _501  and  _504
REMARK  212  A    between atoms: _504  and  _505
REMARK  213  A    between atoms: _509  and  _510
REMARK  214  A    between atoms: _515  and  _517
REMARK  215  A    between atoms: _517  and  _518
REMARK  216  A    between atoms: _517  and  _520
REMARK  217  A    between atoms: _520  and  _521
REMARK  218  A    between atoms: _524  and  _526
REMARK  219  A    between atoms: _526  and  _527
REMARK  220  A    between atoms: _526  and  _529
REMARK  221  A    between atoms: _529  and  _530
REMARK  222  A    between atoms: _535  and  _537
REMARK  223  A    between atoms: _537  and  _538
REMARK  224  A    between atoms: _537  and  _540
REMARK  225  A    between atoms: _543  and  _545
REMARK  226  A    between atoms: _545  and  _546
REMARK  227  A    between atoms: _545  and  _548
REMARK  228  A    between atoms: _548  and  _549
REMARK  229  A    between atoms: _552  and  _554
REMARK  230  A    between atoms: _554  and  _555
REMARK  231  A    between atoms: _557  and  _559
REMARK  232  A    between atoms: _559  and  _560
REMARK  233  A    between atoms: _559  and  _562
REMARK  234  A    between atoms: _562  and  _563
REMARK  235  A    between atoms: _563  and  _564
REMARK  236  A    between atoms: _564  and  _565
REMARK  237  A    between atoms: _574  and  _576
REMARK  238  A    between atoms: _576  and  _577
REMARK  239  A    between atoms: _576  and  _579
REMARK  240  A    between atoms: _579  and  _580
REMARK                            x       y       z     vdW  Elec       q    Type
REMARK                         _______ _______ _______ _____ _____    ______ ____
ROOT
ATOM      1  O   HOH     1       7.914  35.321   5.655  0.00  0.00    +0.000 OA
ENDROOT
TORSDOF 0
REMARK  Name = ../refined-set-2016/2wl0/2wl0_pocket.pdb
REMARK  240 active torsions:
REMARK  status: ('A' for Active; 'I' for Inactive)
REMARK    1  A    between atoms: _1  and  _3
REMARK    2  A    between atoms: _3  and  _4
REMARK    3  A    between atoms: _3  and  _6
REMARK    4  A    between atoms: _6  and  _7
REMARK    5  A    between atoms: _7  and  _8
REMARK    6  A    between atoms: _8  and  _9
REMARK    7  A    between atoms: _18  and  _20
REMARK    8  A    between atoms: _20  and  _21
REMARK    9  A    between atoms: _20  and  _23
REMARK   10  A    between atoms: _23  and  _24
REMARK   11  A    between atoms: _27  and  _29
REMARK   12  A    between atoms: _29  and  _30
REMARK   13  A    between atoms: _29  and  _32
REMARK   14  A    between atoms: _32  and  _33
REMARK   15  A    between atoms: _36  and  _38
REMARK   16  A    between atoms: _38  and  _39
REMARK   17  A    between atoms: _38  and  _41
REMARK   18  A    between atoms: _41  and  _42
REMARK   19  A    between atoms: _45  and  _47
REMARK   20  A    between atoms: _47  and  _48
REMARK   21  A    between atoms: _47  and  _50
REMARK   22  A    between atoms: _50  and  _51
REMARK   23  A    between atoms: _54  and  _56
REMARK   24  A    between atoms: _56  and  _57
REMARK   25  A    between atoms: _59  and  _61
REMARK   26  A    between atoms: _61  and  _62
REMARK   27  A    between atoms: _65  and  _67
REMARK   28  A    between atoms: _67  and  _68
REMARK   29  A    between atoms: _67  and  _70
REMARK   30  A    between atoms: _70  and  _71
REMARK   31  A    between atoms: _74  and  _76
REMARK   32  A    between atoms: _76  and  _77
REMARK   33  A    between atoms: _76  and  _79
REMARK   34  A    between atoms: _79  and  _80
REMARK   35  A    between atoms: _83  and  _85
REMARK   36  A    between atoms: _85  and  _86
REMARK   37  A    between atoms: _85  and  _88
REMARK   38  A    between atoms: _88  and  _89
REMARK   39  A    between atoms: _92  and  _94
REMARK   40  A    between atoms: _94  and  _95
REMARK   41  A    between atoms: _94  and  _97
REMARK   42  A    between atoms: _100  and  _102
REMARK   43  A    between atoms: _102  and  _103
REMARK   44  A    between atoms: _102  and  _105
REMARK   45  A    between atoms: _105  and  _106
REMARK   46  A    between atoms: _109  and  _111
REMARK   47  A    between atoms: _111  and  _112
REMARK   48  A    between atoms: _111  and  _114
REMARK   49  A    between atoms: _114  and  _115
REMARK   50  A    between atoms: _115  and  _116
REMARK   51  A    between atoms: _116  and  _117
REMARK   52  A    between atoms: _117  and  _118
REMARK   53  A    between atoms: _122  and  _124
REMARK   54  A    between atoms: _124  and  _125
REMARK   55  A    between atoms: _124  and  _127
REMARK   56  A    between atoms: _127  and  _128
REMARK   57  A    between atoms: _128  and  _129
REMARK   58  A    between atoms: _131  and  _133
REMARK   59  A    between atoms: _133  and  _134
REMARK   60  A    between atoms: _133  and  _136
REMARK   61  A    between atoms: _136  and  _137
REMARK   62  A    between atoms: _140  and  _142
REMARK   63  A    between atoms: _142  and  _143
REMARK   64  A    between atoms: _145  and  _147
REMARK   65  A    between atoms: _147  and  _148
REMARK   66  A    between atoms: _150  and  _152
REMARK   67  A    between atoms: _152  and  _153
REMARK   68  A    between atoms: _152  and  _155
REMARK   69  A    between atoms: _155  and  _156
REMARK   70  A    between atoms: _159  and  _161
REMARK   71  A    between atoms: _161  and  _162
REMARK   72  A    between atoms: _164  and  _166
REMARK   73  A    between atoms: _166  and  _167
REMARK   74  A    between atoms: _169  and  _171
REMARK   75  A    between atoms: _171  and  _172
REMARK   76  A    between atoms: _171  and  _174
REMARK   77  A    between atoms: _174  and  _175
REMARK   78  A    between atoms: _181  and  _183
REMARK   79  A    between atoms: _183  and  _184
REMARK   80  A    between atoms: _183  and  _186
REMARK   81  A    between atoms: _186  and  _187
REMARK   82  A    between atoms: _190  and  _192
REMARK   83  A    between atoms: _192  and  _193
REMARK   84  A    between atoms: _192  and  _195
REMARK   85  A    between atoms: _198  and  _200
REMARK   86  A    between atoms: _200  and  _201
REMARK   87  A    between atoms: _200  and  _203
REMARK   88  A    between atoms: _203  and  _204
REMARK   89  A    between atoms: _207  and  _209
REMARK   90  A    between atoms: _209  and  _210
REMARK   91  A    between atoms: _209  and  _212
REMARK   92  A    between atoms: _212  and  _213
REMARK   93  A    between atoms: _217  and  _218
REMARK   94  A    between atoms: _223  and  _225
REMARK   95  A    between atoms: _225  and  _226
REMARK   96  A    between atoms: _225  and  _228
REMARK   97  A    between atoms: _228  and  _229
REMARK   98  A    between atoms: _232  and  _234
REMARK   99  A    between atoms: _234  and  _235
REMARK  100  A    between atoms: _234  and  _237
REMARK  101  A    between atoms: _237  and  _238
REMARK  102  A    between atoms: _243  and  _245
REMARK  103  A    between atoms: _245  and  _246
REMARK  104  A    between atoms: _245  and  _248
REMARK  105  A    between atoms: _251  and  _253
REMARK  106  A    between atoms: _253  and  _254
REMARK  107  A    between atoms: _253  and  _256
REMARK  108  A    between atoms: _256  and  _257
REMARK  109  A    between atoms: _260  and  _262
REMARK  110  A    between atoms: _262  and  _263
REMARK  111  A    between atoms: _265  and  _267
REMARK  112  A    between atoms: _267  and  _268
REMARK  113  A    between atoms: _267  and  _270
REMARK  114  A    between atoms: _270  and  _271
REMARK  115  A    between atoms: _271  and  _272
REMARK  116  A    between atoms: _272  and  _273
REMARK  117  A    between atoms: _282  and  _284
REMARK  118  A    between atoms: _284  and  _285
REMARK  119  A    between atoms: _284  and  _287
REMARK  120  A    between atoms: _287  and  _288
REMARK  121  A    between atoms: _293  and  _295
REMARK  122  A    between atoms: _295  and  _296
REMARK  123  A    between atoms: _295  and  _298
REMARK  124  A    between atoms: _298  and  _299
REMARK  125  A    between atoms: _299  and  _300
REMARK  126  A    between atoms: _300  and  _301
REMARK  127  A    between atoms: _310  and  _312
REMARK  128  A    between atoms: _312  and  _313
REMARK  129  A    between atoms: _312  and  _315
REMARK  130  A    between atoms: _315  and  _316
REMARK  131  A    between atoms: _319  and  _321
REMARK  132  A    between atoms: _321  and  _322
REMARK  133  A    between atoms: _321  and  _324
REMARK  134  A    between atoms: _324  and  _325
REMARK  135  A    between atoms: _328  and  _330
REMARK  136  A    between atoms: _330  and  _331
REMARK  137  A    between atoms: _330  and  _333
REMARK  138  A    between atoms: _333  and  _334
REMARK  139  A    between atoms: _337  and  _339
REMARK  140  A    between atoms: _339  and  _340
REMARK  141  A    between atoms: _339  and  _342
REMARK  142  A    between atoms: _342  and  _343
REMARK  143  A    between atoms: _346  and  _348
REMARK  144  A    between atoms: _348  and  _349
REMARK  145  A    between atoms: _348  and  _351
REMARK  146  A    between atoms: _351  and  _352
REMARK  147  A    between atoms: _355  and  _357
REMARK  148  A    between atoms: _357  and  _358
REMARK  149  A    between atoms: _360  and  _362
REMARK  150  A    between atoms: _362  and  _363
REMARK  151  A    between atoms: _366  and  _368
REMARK  152  A    between atoms: _368  and  _369
REMARK  153  A    between atoms: _368  and  _371
REMARK  154  A    between atoms: _371  and  _372
REMARK  155  A    between atoms: _375  and  _377
REMARK  156  A    between atoms: _377  and  _378
REMARK  157  A    between atoms: _377  and  _380
REMARK  158  A    between atoms: _380  and  _381
REMARK  159  A    between atoms: _384  and  _386
REMARK  160  A    between atoms: _386  and  _387
REMARK  161  A    between atoms: _386  and  _389
REMARK  162  A    between atoms: _389  and  _390
REMARK  163  A    between atoms: _393  and  _395
REMARK  164  A    between atoms: _395  and  _396
REMARK  165  A    between atoms: _395  and  _398
REMARK  166  A    between atoms: _401  and  _403
REMARK  167  A    between atoms: _403  and  _404
REMARK  168  A    between atoms: _403  and  _406
REMARK  169  A    between atoms: _406  and  _407
REMARK  170  A    between atoms: _407  and  _408
REMARK  171  A    between atoms: _408  and  _409
REMARK  172  A    between atoms: _409  and  _410
REMARK  173  A    between atoms: _414  and  _416
REMARK  174  A    between atoms: _416  and  _417
REMARK  175  A    between atoms: _416  and  _419
REMARK  176  A    between atoms: _419  and  _420
REMARK  177  A    between atoms: _420  and  _421
REMARK  178  A    between atoms: _423  and  _425
REMARK  179  A    between atoms: _425  and  _426
REMARK  180  A    between atoms: _425  and  _428
REMARK  181  A    between atoms: _428  and  _429
REMARK  182  A    between atoms: _432  and  _434
REMARK  183  A    between atoms: _434  and  _435
REMARK  184  A    between atoms: _437  and  _439
REMARK  185  A    between atoms: _439  and  _440
REMARK  186  A    between atoms: _442  and  _444
REMARK  187  A    between atoms: _444  and  _445
REMARK  188  A    between atoms: _444  and  _447
REMARK  189  A    between atoms: _447  and  _448
REMARK  190  A    between atoms: _451  and  _453
REMARK  191  A    between atoms: _453  and  _454
REMARK  192  A    between atoms: _456  and  _458
REMARK  193  A    between atoms: _458  and  _459
REMARK  194  A    between atoms: _461  and  _463
REMARK  195  A    between atoms: _463  and  _464
REMARK  196  A    between atoms: _463  and  _466
REMARK  197  A    between atoms: _466  and  _467
REMARK  198  A    between atoms: _473  and  _475
REMARK  199  A    between atoms: _475  and  _476
REMARK  200  A    between atoms: _475  and  _478
REMARK  201  A    between atoms: _478  and  _479
REMARK  202  A    between atoms: _482  and  _484
REMARK  203  A    between atoms: _484  and  _485
REMARK  204  A    between atoms: _484  and  _487
REMARK  205  A    between atoms: _490  and  _492
REMARK  206  A    between atoms: _492  and  _493
REMARK  207  A    between atoms: _492  and  _495
REMARK  208  A    between atoms: _495  and  _496
REMARK  209  A    between atoms: _499  and  _501
REMARK  210  A    between atoms: _501  and  _502
REMARK  211  A    between atoms: _501  and  _504
REMARK  212  A    between atoms: _504  and  _505
REMARK  213  A    between atoms: _509  and  _510
REMARK  214  A    between atoms: _515  and  _517
REMARK  215  A    between atoms: _517  and  _518
REMARK  216  A    between atoms: _517  and  _520
REMARK  217  A    between atoms: _520  and  _521
REMARK  218  A    between atoms: _524  and  _526
REMARK  219  A    between atoms: _526  and  _527
REMARK  220  A    between atoms: _526  and  _529
REMARK  221  A    between atoms: _529  and  _530
REMARK  222  A    between atoms: _535  and  _537
REMARK  223  A    between atoms: _537  and  _538
REMARK  224  A    between atoms: _537  and  _540
REMARK  225  A    between atoms: _543  and  _545
REMARK  226  A    between atoms: _545  and  _546
REMARK  227  A    between atoms: _545  and  _548
REMARK  228  A    between atoms: _548  and  _549
REMARK  229  A    between atoms: _552  and  _554
REMARK  230  A    between atoms: _554  and  _555
REMARK  231  A    between atoms: _557  and  _559
REMARK  232  A    between atoms: _559  and  _560
REMARK  233  A    between atoms: _559  and  _562
REMARK  234  A    between atoms: _562  and  _563
REMARK  235  A    between atoms: _563  and  _564
REMARK  236  A    between atoms: _564  and  _565
REMARK  237  A    between atoms: _574  and  _576
REMARK  238  A    between atoms: _576  and  _577
REMARK  239  A    between atoms: _576  and  _579
REMARK  240  A    between atoms: _579  and  _580
REMARK                            x       y       z     vdW  Elec       q    Type
REMARK                         _______ _______ _______ _____ _____    ______ ____
ROOT
ATOM      1  O   HOH     1       4.073  32.672   7.700  0.00  0.00    +0.000 OA
ENDROOT
TORSDOF 0
REMARK  Name = ../refined-set-2016/2wl0/2wl0_pocket.pdb
REMARK  240 active torsions:
REMARK  status: ('A' for Active; 'I' for Inactive)
REMARK    1  A    between atoms: _1  and  _3
REMARK    2  A    between atoms: _3  and  _4
REMARK    3  A    between atoms: _3  and  _6
REMARK    4  A    between atoms: _6  and  _7
REMARK    5  A    between atoms: _7  and  _8
REMARK    6  A    between atoms: _8  and  _9
REMARK    7  A    between atoms: _18  and  _20
REMARK    8  A    between atoms: _20  and  _21
REMARK    9  A    between atoms: _20  and  _23
REMARK   10  A    between atoms: _23  and  _24
REMARK   11  A    between atoms: _27  and  _29
REMARK   12  A    between atoms: _29  and  _30
REMARK   13  A    between atoms: _29  and  _32
REMARK   14  A    between atoms: _32  and  _33
REMARK   15  A    between atoms: _36  and  _38
REMARK   16  A    between atoms: _38  and  _39
REMARK   17  A    between atoms: _38  and  _41
REMARK   18  A    between atoms: _41  and  _42
REMARK   19  A    between atoms: _45  and  _47
REMARK   20  A    between atoms: _47  and  _48
REMARK   21  A    between atoms: _47  and  _50
REMARK   22  A    between atoms: _50  and  _51
REMARK   23  A    between atoms: _54  and  _56
REMARK   24  A    between atoms: _56  and  _57
REMARK   25  A    between atoms: _59  and  _61
REMARK   26  A    between atoms: _61  and  _62
REMARK   27  A    between atoms: _65  and  _67
REMARK   28  A    between atoms: _67  and  _68
REMARK   29  A    between atoms: _67  and  _70
REMARK   30  A    between atoms: _70  and  _71
REMARK   31  A    between atoms: _74  and  _76
REMARK   32  A    between atoms: _76  and  _77
REMARK   33  A    between atoms: _76  and  _79
REMARK   34  A    between atoms: _79  and  _80
REMARK   35  A    between atoms: _83  and  _85
REMARK   36  A    between atoms: _85  and  _86
REMARK   37  A    between atoms: _85  and  _88
REMARK   38  A    between atoms: _88  and  _89
REMARK   39  A    between atoms: _92  and  _94
REMARK   40  A    between atoms: _94  and  _95
REMARK   41  A    between atoms: _94  and  _97
REMARK   42  A    between atoms: _100  and  _102
REMARK   43  A    between atoms: _102  and  _103
REMARK   44  A    between atoms: _102  and  _105
REMARK   45  A    between atoms: _105  and  _106
REMARK   46  A    between atoms: _109  and  _111
REMARK   47  A    between atoms: _111  and  _112
REMARK   48  A    between atoms: _111  and  _114
REMARK   49  A    between atoms: _114  and  _115
REMARK   50  A    between atoms: _115  and  _116
REMARK   51  A    between atoms: _116  and  _117
REMARK   52  A    between atoms: _117  and  _118
REMARK   53  A    between atoms: _122  and  _124
REMARK   54  A    between atoms: _124  and  _125
REMARK   55  A    between atoms: _124  and  _127
REMARK   56  A    between atoms: _127  and  _128
REMARK   57  A    between atoms: _128  and  _129
REMARK   58  A    between atoms: _131  and  _133
REMARK   59  A    between atoms: _133  and  _134
REMARK   60  A    between atoms: _133  and  _136
REMARK   61  A    between atoms: _136  and  _137
REMARK   62  A    between atoms: _140  and  _142
REMARK   63  A    between atoms: _142  and  _143
REMARK   64  A    between atoms: _145  and  _147
REMARK   65  A    between atoms: _147  and  _148
REMARK   66  A    between atoms: _150  and  _152
REMARK   67  A    between atoms: _152  and  _153
REMARK   68  A    between atoms: _152  and  _155
REMARK   69  A    between atoms: _155  and  _156
REMARK   70  A    between atoms: _159  and  _161
REMARK   71  A    between atoms: _161  and  _162
REMARK   72  A    between atoms: _164  and  _166
REMARK   73  A    between atoms: _166  and  _167
REMARK   74  A    between atoms: _169  and  _171
REMARK   75  A    between atoms: _171  and  _172
REMARK   76  A    between atoms: _171  and  _174
REMARK   77  A    between atoms: _174  and  _175
REMARK   78  A    between atoms: _181  and  _183
REMARK   79  A    between atoms: _183  and  _184
REMARK   80  A    between atoms: _183  and  _186
REMARK   81  A    between atoms: _186  and  _187
REMARK   82  A    between atoms: _190  and  _192
REMARK   83  A    between atoms: _192  and  _193
REMARK   84  A    between atoms: _192  and  _195
REMARK   85  A    between atoms: _198  and  _200
REMARK   86  A    between atoms: _200  and  _201
REMARK   87  A    between atoms: _200  and  _203
REMARK   88  A    between atoms: _203  and  _204
REMARK   89  A    between atoms: _207  and  _209
REMARK   90  A    between atoms: _209  and  _210
REMARK   91  A    between atoms: _209  and  _212
REMARK   92  A    between atoms: _212  and  _213
REMARK   93  A    between atoms: _217  and  _218
REMARK   94  A    between atoms: _223  and  _225
REMARK   95  A    between atoms: _225  and  _226
REMARK   96  A    between atoms: _225  and  _228
REMARK   97  A    between atoms: _228  and  _229
REMARK   98  A    between atoms: _232  and  _234
REMARK   99  A    between atoms: _234  and  _235
REMARK  100  A    between atoms: _234  and  _237
REMARK  101  A    between atoms: _237  and  _238
REMARK  102  A    between atoms: _243  and  _245
REMARK  103  A    between atoms: _245  and  _246
REMARK  104  A    between atoms: _245  and  _248
REMARK  105  A    between atoms: _251  and  _253
REMARK  106  A    between atoms: _253  and  _254
REMARK  107  A    between atoms: _253  and  _256
REMARK  108  A    between atoms: _256  and  _257
REMARK  109  A    between atoms: _260  and  _262
REMARK  110  A    between atoms: _262  and  _263
REMARK  111  A    between atoms: _265  and  _267
REMARK  112  A    between atoms: _267  and  _268
REMARK  113  A    between atoms: _267  and  _270
REMARK  114  A    between atoms: _270  and  _271
REMARK  115  A    between atoms: _271  and  _272
REMARK  116  A    between atoms: _272  and  _273
REMARK  117  A    between atoms: _282  and  _284
REMARK  118  A    between atoms: _284  and  _285
REMARK  119  A    between atoms: _284  and  _287
REMARK  120  A    between atoms: _287  and  _288
REMARK  121  A    between atoms: _293  and  _295
REMARK  122  A    between atoms: _295  and  _296
REMARK  123  A    between atoms: _295  and  _298
REMARK  124  A    between atoms: _298  and  _299
REMARK  125  A    between atoms: _299  and  _300
REMARK  126  A    between atoms: _300  and  _301
REMARK  127  A    between atoms: _310  and  _312
REMARK  128  A    between atoms: _312  and  _313
REMARK  129  A    between atoms: _312  and  _315
REMARK  130  A    between atoms: _315  and  _316
REMARK  131  A    between atoms: _319  and  _321
REMARK  132  A    between atoms: _321  and  _322
REMARK  133  A    between atoms: _321  and  _324
REMARK  134  A    between atoms: _324  and  _325
REMARK  135  A    between atoms: _328  and  _330
REMARK  136  A    between atoms: _330  and  _331
REMARK  137  A    between atoms: _330  and  _333
REMARK  138  A    between atoms: _333  and  _334
REMARK  139  A    between atoms: _337  and  _339
REMARK  140  A    between atoms: _339  and  _340
REMARK  141  A    between atoms: _339  and  _342
REMARK  142  A    between atoms: _342  and  _343
REMARK  143  A    between atoms: _346  and  _348
REMARK  144  A    between atoms: _348  and  _349
REMARK  145  A    between atoms: _348  and  _351
REMARK  146  A    between atoms: _351  and  _352
REMARK  147  A    between atoms: _355  and  _357
REMARK  148  A    between atoms: _357  and  _358
REMARK  149  A    between atoms: _360  and  _362
REMARK  150  A    between atoms: _362  and  _363
REMARK  151  A    between atoms: _366  and  _368
REMARK  152  A    between atoms: _368  and  _369
REMARK  153  A    between atoms: _368  and  _371
REMARK  154  A    between atoms: _371  and  _372
REMARK  155  A    between atoms: _375  and  _377
REMARK  156  A    between atoms: _377  and  _378
REMARK  157  A    between atoms: _377  and  _380
REMARK  158  A    between atoms: _380  and  _381
REMARK  159  A    between atoms: _384  and  _386
REMARK  160  A    between atoms: _386  and  _387
REMARK  161  A    between atoms: _386  and  _389
REMARK  162  A    between atoms: _389  and  _390
REMARK  163  A    between atoms: _393  and  _395
REMARK  164  A    between atoms: _395  and  _396
REMARK  165  A    between atoms: _395  and  _398
REMARK  166  A    between atoms: _401  and  _403
REMARK  167  A    between atoms: _403  and  _404
REMARK  168  A    between atoms: _403  and  _406
REMARK  169  A    between atoms: _406  and  _407
REMARK  170  A    between atoms: _407  and  _408
REMARK  171  A    between atoms: _408  and  _409
REMARK  172  A    between atoms: _409  and  _410
REMARK  173  A    between atoms: _414  and  _416
REMARK  174  A    between atoms: _416  and  _417
REMARK  175  A    between atoms: _416  and  _419
REMARK  176  A    between atoms: _419  and  _420
REMARK  177  A    between atoms: _420  and  _421
REMARK  178  A    between atoms: _423  and  _425
REMARK  179  A    between atoms: _425  and  _426
REMARK  180  A    between atoms: _425  and  _428
REMARK  181  A    between atoms: _428  and  _429
REMARK  182  A    between atoms: _432  and  _434
REMARK  183  A    between atoms: _434  and  _435
REMARK  184  A    between atoms: _437  and  _439
REMARK  185  A    between atoms: _439  and  _440
REMARK  186  A    between atoms: _442  and  _444
REMARK  187  A    between atoms: _444  and  _445
REMARK  188  A    between atoms: _444  and  _447
REMARK  189  A    between atoms: _447  and  _448
REMARK  190  A    between atoms: _451  and  _453
REMARK  191  A    between atoms: _453  and  _454
REMARK  192  A    between atoms: _456  and  _458
REMARK  193  A    between atoms: _458  and  _459
REMARK  194  A    between atoms: _461  and  _463
REMARK  195  A    between atoms: _463  and  _464
REMARK  196  A    between atoms: _463  and  _466
REMARK  197  A    between atoms: _466  and  _467
REMARK  198  A    between atoms: _473  and  _475
REMARK  199  A    between atoms: _475  and  _476
REMARK  200  A    between atoms: _475  and  _478
REMARK  201  A    between atoms: _478  and  _479
REMARK  202  A    between atoms: _482  and  _484
REMARK  203  A    between atoms: _484  and  _485
REMARK  204  A    between atoms: _484  and  _487
REMARK  205  A    between atoms: _490  and  _492
REMARK  206  A    between atoms: _492  and  _493
REMARK  207  A    between atoms: _492  and  _495
REMARK  208  A    between atoms: _495  and  _496
REMARK  209  A    between atoms: _499  and  _501
REMARK  210  A    between atoms: _501  and  _502
REMARK  211  A    between atoms: _501  and  _504
REMARK  212  A    between atoms: _504  and  _505
REMARK  213  A    between atoms: _509  and  _510
REMARK  214  A    between atoms: _515  and  _517
REMARK  215  A    between atoms: _517  and  _518
REMARK  216  A    between atoms: _517  and  _520
REMARK  217  A    between atoms: _520  and  _521
REMARK  218  A    between atoms: _524  and  _526
REMARK  219  A    between atoms: _526  and  _527
REMARK  220  A    between atoms: _526  and  _529
REMARK  221  A    between atoms: _529  and  _530
REMARK  222  A    between atoms: _535  and  _537
REMARK  223  A    between atoms: _537  and  _538
REMARK  224  A    between atoms: _537  and  _540
REMARK  225  A    between atoms: _543  and  _545
REMARK  226  A    between atoms: _545  and  _546
REMARK  227  A    between atoms: _545  and  _548
REMARK  228  A    between atoms: _548  and  _549
REMARK  229  A    between atoms: _552  and  _554
REMARK  230  A    between atoms: _554  and  _555
REMARK  231  A    between atoms: _557  and  _559
REMARK  232  A    between atoms: _559  and  _560
REMARK  233  A    between atoms: _559  and  _562
REMARK  234  A    between atoms: _562  and  _563
REMARK  235  A    between atoms: _563  and  _564
REMARK  236  A    between atoms: _564  and  _565
REMARK  237  A    between atoms: _574  and  _576
REMARK  238  A    between atoms: _576  and  _577
REMARK  239  A    between atoms: _576  and  _579
REMARK  240  A    between atoms: _579  and  _580
REMARK                            x       y       z     vdW  Elec       q    Type
REMARK                         _______ _______ _______ _____ _____    ______ ____
ROOT
ATOM      1  O   HOH     1       6.562  34.542  10.722  0.00  0.00    +0.000 OA
ENDROOT
TORSDOF 0
REMARK  Name = ../refined-set-2016/2wl0/2wl0_pocket.pdb
REMARK  240 active torsions:
REMARK  status: ('A' for Active; 'I' for Inactive)
REMARK    1  A    between atoms: _1  and  _3
REMARK    2  A    between atoms: _3  and  _4
REMARK    3  A    between atoms: _3  and  _6
REMARK    4  A    between atoms: _6  and  _7
REMARK    5  A    between atoms: _7  and  _8
REMARK    6  A    between atoms: _8  and  _9
REMARK    7  A    between atoms: _18  and  _20
REMARK    8  A    between atoms: _20  and  _21
REMARK    9  A    between atoms: _20  and  _23
REMARK   10  A    between atoms: _23  and  _24
REMARK   11  A    between atoms: _27  and  _29
REMARK   12  A    between atoms: _29  and  _30
REMARK   13  A    between atoms: _29  and  _32
REMARK   14  A    between atoms: _32  and  _33
REMARK   15  A    between atoms: _36  and  _38
REMARK   16  A    between atoms: _38  and  _39
REMARK   17  A    between atoms: _38  and  _41
REMARK   18  A    between atoms: _41  and  _42
REMARK   19  A    between atoms: _45  and  _47
REMARK   20  A    between atoms: _47  and  _48
REMARK   21  A    between atoms: _47  and  _50
REMARK   22  A    between atoms: _50  and  _51
REMARK   23  A    between atoms: _54  and  _56
REMARK   24  A    between atoms: _56  and  _57
REMARK   25  A    between atoms: _59  and  _61
REMARK   26  A    between atoms: _61  and  _62
REMARK   27  A    between atoms: _65  and  _67
REMARK   28  A    between atoms: _67  and  _68
REMARK   29  A    between atoms: _67  and  _70
REMARK   30  A    between atoms: _70  and  _71
REMARK   31  A    between atoms: _74  and  _76
REMARK   32  A    between atoms: _76  and  _77
REMARK   33  A    between atoms: _76  and  _79
REMARK   34  A    between atoms: _79  and  _80
REMARK   35  A    between atoms: _83  and  _85
REMARK   36  A    between atoms: _85  and  _86
REMARK   37  A    between atoms: _85  and  _88
REMARK   38  A    between atoms: _88  and  _89
REMARK   39  A    between atoms: _92  and  _94
REMARK   40  A    between atoms: _94  and  _95
REMARK   41  A    between atoms: _94  and  _97
REMARK   42  A    between atoms: _100  and  _102
REMARK   43  A    between atoms: _102  and  _103
REMARK   44  A    between atoms: _102  and  _105
REMARK   45  A    between atoms: _105  and  _106
REMARK   46  A    between atoms: _109  and  _111
REMARK   47  A    between atoms: _111  and  _112
REMARK   48  A    between atoms: _111  and  _114
REMARK   49  A    between atoms: _114  and  _115
REMARK   50  A    between atoms: _115  and  _116
REMARK   51  A    between atoms: _116  and  _117
REMARK   52  A    between atoms: _117  and  _118
REMARK   53  A    between atoms: _122  and  _124
REMARK   54  A    between atoms: _124  and  _125
REMARK   55  A    between atoms: _124  and  _127
REMARK   56  A    between atoms: _127  and  _128
REMARK   57  A    between atoms: _128  and  _129
REMARK   58  A    between atoms: _131  and  _133
REMARK   59  A    between atoms: _133  and  _134
REMARK   60  A    between atoms: _133  and  _136
REMARK   61  A    between atoms: _136  and  _137
REMARK   62  A    between atoms: _140  and  _142
REMARK   63  A    between atoms: _142  and  _143
REMARK   64  A    between atoms: _145  and  _147
REMARK   65  A    between atoms: _147  and  _148
REMARK   66  A    between atoms: _150  and  _152
REMARK   67  A    between atoms: _152  and  _153
REMARK   68  A    between atoms: _152  and  _155
REMARK   69  A    between atoms: _155  and  _156
REMARK   70  A    between atoms: _159  and  _161
REMARK   71  A    between atoms: _161  and  _162
REMARK   72  A    between atoms: _164  and  _166
REMARK   73  A    between atoms: _166  and  _167
REMARK   74  A    between atoms: _169  and  _171
REMARK   75  A    between atoms: _171  and  _172
REMARK   76  A    between atoms: _171  and  _174
REMARK   77  A    between atoms: _174  and  _175
REMARK   78  A    between atoms: _181  and  _183
REMARK   79  A    between atoms: _183  and  _184
REMARK   80  A    between atoms: _183  and  _186
REMARK   81  A    between atoms: _186  and  _187
REMARK   82  A    between atoms: _190  and  _192
REMARK   83  A    between atoms: _192  and  _193
REMARK   84  A    between atoms: _192  and  _195
REMARK   85  A    between atoms: _198  and  _200
REMARK   86  A    between atoms: _200  and  _201
REMARK   87  A    between atoms: _200  and  _203
REMARK   88  A    between atoms: _203  and  _204
REMARK   89  A    between atoms: _207  and  _209
REMARK   90  A    between atoms: _209  and  _210
REMARK   91  A    between atoms: _209  and  _212
REMARK   92  A    between atoms: _212  and  _213
REMARK   93  A    between atoms: _217  and  _218
REMARK   94  A    between atoms: _223  and  _225
REMARK   95  A    between atoms: _225  and  _226
REMARK   96  A    between atoms: _225  and  _228
REMARK   97  A    between atoms: _228  and  _229
REMARK   98  A    between atoms: _232  and  _234
REMARK   99  A    between atoms: _234  and  _235
REMARK  100  A    between atoms: _234  and  _237
REMARK  101  A    between atoms: _237  and  _238
REMARK  102  A    between atoms: _243  and  _245
REMARK  103  A    between atoms: _245  and  _246
REMARK  104  A    between atoms: _245  and  _248
REMARK  105  A    between atoms: _251  and  _253
REMARK  106  A    between atoms: _253  and  _254
REMARK  107  A    between atoms: _253  and  _256
REMARK  108  A    between atoms: _256  and  _257
REMARK  109  A    between atoms: _260  and  _262
REMARK  110  A    between atoms: _262  and  _263
REMARK  111  A    between atoms: _265  and  _267
REMARK  112  A    between atoms: _267  and  _268
REMARK  113  A    between atoms: _267  and  _270
REMARK  114  A    between atoms: _270  and  _271
REMARK  115  A    between atoms: _271  and  _272
REMARK  116  A    between atoms: _272  and  _273
REMARK  117  A    between atoms: _282  and  _284
REMARK  118  A    between atoms: _284  and  _285
REMARK  119  A    between atoms: _284  and  _287
REMARK  120  A    between atoms: _287  and  _288
REMARK  121  A    between atoms: _293  and  _295
REMARK  122  A    between atoms: _295  and  _296
REMARK  123  A    between atoms: _295  and  _298
REMARK  124  A    between atoms: _298  and  _299
REMARK  125  A    between atoms: _299  and  _300
REMARK  126  A    between atoms: _300  and  _301
REMARK  127  A    between atoms: _310  and  _312
REMARK  128  A    between atoms: _312  and  _313
REMARK  129  A    between atoms: _312  and  _315
REMARK  130  A    between atoms: _315  and  _316
REMARK  131  A    between atoms: _319  and  _321
REMARK  132  A    between atoms: _321  and  _322
REMARK  133  A    between atoms: _321  and  _324
REMARK  134  A    between atoms: _324  and  _325
REMARK  135  A    between atoms: _328  and  _330
REMARK  136  A    between atoms: _330  and  _331
REMARK  137  A    between atoms: _330  and  _333
REMARK  138  A    between atoms: _333  and  _334
REMARK  139  A    between atoms: _337  and  _339
REMARK  140  A    between atoms: _339  and  _340
REMARK  141  A    between atoms: _339  and  _342
REMARK  142  A    between atoms: _342  and  _343
REMARK  143  A    between atoms: _346  and  _348
REMARK  144  A    between atoms: _348  and  _349
REMARK  145  A    between atoms: _348  and  _351
REMARK  146  A    between atoms: _351  and  _352
REMARK  147  A    between atoms: _355  and  _357
REMARK  148  A    between atoms: _357  and  _358
REMARK  149  A    between atoms: _360  and  _362
REMARK  150  A    between atoms: _362  and  _363
REMARK  151  A    between atoms: _366  and  _368
REMARK  152  A    between atoms: _368  and  _369
REMARK  153  A    between atoms: _368  and  _371
REMARK  154  A    between atoms: _371  and  _372
REMARK  155  A    between atoms: _375  and  _377
REMARK  156  A    between atoms: _377  and  _378
REMARK  157  A    between atoms: _377  and  _380
REMARK  158  A    between atoms: _380  and  _381
REMARK  159  A    between atoms: _384  and  _386
REMARK  160  A    between atoms: _386  and  _387
REMARK  161  A    between atoms: _386  and  _389
REMARK  162  A    between atoms: _389  and  _390
REMARK  163  A    between atoms: _393  and  _395
REMARK  164  A    between atoms: _395  and  _396
REMARK  165  A    between atoms: _395  and  _398
REMARK  166  A    between atoms: _401  and  _403
REMARK  167  A    between atoms: _403  and  _404
REMARK  168  A    between atoms: _403  and  _406
REMARK  169  A    between atoms: _406  and  _407
REMARK  170  A    between atoms: _407  and  _408
REMARK  171  A    between atoms: _408  and  _409
REMARK  172  A    between atoms: _409  and  _410
REMARK  173  A    between atoms: _414  and  _416
REMARK  174  A    between atoms: _416  and  _417
REMARK  175  A    between atoms: _416  and  _419
REMARK  176  A    between atoms: _419  and  _420
REMARK  177  A    between atoms: _420  and  _421
REMARK  178  A    between atoms: _423  and  _425
REMARK  179  A    between atoms: _425  and  _426
REMARK  180  A    between atoms: _425  and  _428
REMARK  181  A    between atoms: _428  and  _429
REMARK  182  A    between atoms: _432  and  _434
REMARK  183  A    between atoms: _434  and  _435
REMARK  184  A    between atoms: _437  and  _439
REMARK  185  A    between atoms: _439  and  _440
REMARK  186  A    between atoms: _442  and  _444
REMARK  187  A    between atoms: _444  and  _445
REMARK  188  A    between atoms: _444  and  _447
REMARK  189  A    between atoms: _447  and  _448
REMARK  190  A    between atoms: _451  and  _453
REMARK  191  A    between atoms: _453  and  _454
REMARK  192  A    between atoms: _456  and  _458
REMARK  193  A    between atoms: _458  and  _459
REMARK  194  A    between atoms: _461  and  _463
REMARK  195  A    between atoms: _463  and  _464
REMARK  196  A    between atoms: _463  and  _466
REMARK  197  A    between atoms: _466  and  _467
REMARK  198  A    between atoms: _473  and  _475
REMARK  199  A    between atoms: _475  and  _476
REMARK  200  A    between atoms: _475  and  _478
REMARK  201  A    between atoms: _478  and  _479
REMARK  202  A    between atoms: _482  and  _484
REMARK  203  A    between atoms: _484  and  _485
REMARK  204  A    between atoms: _484  and  _487
REMARK  205  A    between atoms: _490  and  _492
REMARK  206  A    between atoms: _492  and  _493
REMARK  207  A    between atoms: _492  and  _495
REMARK  208  A    between atoms: _495  and  _496
REMARK  209  A    between atoms: _499  and  _501
REMARK  210  A    between atoms: _501  and  _502
REMARK  211  A    between atoms: _501  and  _504
REMARK  212  A    between atoms: _504  and  _505
REMARK  213  A    between atoms: _509  and  _510
REMARK  214  A    between atoms: _515  and  _517
REMARK  215  A    between atoms: _517  and  _518
REMARK  216  A    between atoms: _517  and  _520
REMARK  217  A    between atoms: _520  and  _521
REMARK  218  A    between atoms: _524  and  _526
REMARK  219  A    between atoms: _526  and  _527
REMARK  220  A    between atoms: _526  and  _529
REMARK  221  A    between atoms: _529  and  _530
REMARK  222  A    between atoms: _535  and  _537
REMARK  223  A    between atoms: _537  and  _538
REMARK  224  A    between atoms: _537  and  _540
REMARK  225  A    between atoms: _543  and  _545
REMARK  226  A    between atoms: _545  and  _546
REMARK  227  A    between atoms: _545  and  _548
REMARK  228  A    between atoms: _548  and  _549
REMARK  229  A    between atoms: _552  and  _554
REMARK  230  A    between atoms: _554  and  _555
REMARK  231  A    between atoms: _557  and  _559
REMARK  232  A    between atoms: _559  and  _560
REMARK  233  A    between atoms: _559  and  _562
REMARK  234  A    between atoms: _562  and  _563
REMARK  235  A    between atoms: _563  and  _564
REMARK  236  A    between atoms: _564  and  _565
REMARK  237  A    between atoms: _574  and  _576
REMARK  238  A    between atoms: _576  and  _577
REMARK  239  A    between atoms: _576  and  _579
REMARK  240  A    between atoms: _579  and  _580
REMARK                            x       y       z     vdW  Elec       q    Type
REMARK                         _______ _______ _______ _____ _____    ______ ____
ROOT
ATOM      1  O   HOH     1      16.792  18.771  18.838  0.00  0.00    +0.000 OA
ENDROOT
TORSDOF 0
REMARK  Name = ../refined-set-2016/2wl0/2wl0_pocket.pdb
REMARK  240 active torsions:
REMARK  status: ('A' for Active; 'I' for Inactive)
REMARK    1  A    between atoms: _1  and  _3
REMARK    2  A    between atoms: _3  and  _4
REMARK    3  A    between atoms: _3  and  _6
REMARK    4  A    between atoms: _6  and  _7
REMARK    5  A    between atoms: _7  and  _8
REMARK    6  A    between atoms: _8  and  _9
REMARK    7  A    between atoms: _18  and  _20
REMARK    8  A    between atoms: _20  and  _21
REMARK    9  A    between atoms: _20  and  _23
REMARK   10  A    between atoms: _23  and  _24
REMARK   11  A    between atoms: _27  and  _29
REMARK   12  A    between atoms: _29  and  _30
REMARK   13  A    between atoms: _29  and  _32
REMARK   14  A    between atoms: _32  and  _33
REMARK   15  A    between atoms: _36  and  _38
REMARK   16  A    between atoms: _38  and  _39
REMARK   17  A    between atoms: _38  and  _41
REMARK   18  A    between atoms: _41  and  _42
REMARK   19  A    between atoms: _45  and  _47
REMARK   20  A    between atoms: _47  and  _48
REMARK   21  A    between atoms: _47  and  _50
REMARK   22  A    between atoms: _50  and  _51
REMARK   23  A    between atoms: _54  and  _56
REMARK   24  A    between atoms: _56  and  _57
REMARK   25  A    between atoms: _59  and  _61
REMARK   26  A    between atoms: _61  and  _62
REMARK   27  A    between atoms: _65  and  _67
REMARK   28  A    between atoms: _67  and  _68
REMARK   29  A    between atoms: _67  and  _70
REMARK   30  A    between atoms: _70  and  _71
REMARK   31  A    between atoms: _74  and  _76
REMARK   32  A    between atoms: _76  and  _77
REMARK   33  A    between atoms: _76  and  _79
REMARK   34  A    between atoms: _79  and  _80
REMARK   35  A    between atoms: _83  and  _85
REMARK   36  A    between atoms: _85  and  _86
REMARK   37  A    between atoms: _85  and  _88
REMARK   38  A    between atoms: _88  and  _89
REMARK   39  A    between atoms: _92  and  _94
REMARK   40  A    between atoms: _94  and  _95
REMARK   41  A    between atoms: _94  and  _97
REMARK   42  A    between atoms: _100  and  _102
REMARK   43  A    between atoms: _102  and  _103
REMARK   44  A    between atoms: _102  and  _105
REMARK   45  A    between atoms: _105  and  _106
REMARK   46  A    between atoms: _109  and  _111
REMARK   47  A    between atoms: _111  and  _112
REMARK   48  A    between atoms: _111  and  _114
REMARK   49  A    between atoms: _114  and  _115
REMARK   50  A    between atoms: _115  and  _116
REMARK   51  A    between atoms: _116  and  _117
REMARK   52  A    between atoms: _117  and  _118
REMARK   53  A    between atoms: _122  and  _124
REMARK   54  A    between atoms: _124  and  _125
REMARK   55  A    between atoms: _124  and  _127
REMARK   56  A    between atoms: _127  and  _128
REMARK   57  A    between atoms: _128  and  _129
REMARK   58  A    between atoms: _131  and  _133
REMARK   59  A    between atoms: _133  and  _134
REMARK   60  A    between atoms: _133  and  _136
REMARK   61  A    between atoms: _136  and  _137
REMARK   62  A    between atoms: _140  and  _142
REMARK   63  A    between atoms: _142  and  _143
REMARK   64  A    between atoms: _145  and  _147
REMARK   65  A    between atoms: _147  and  _148
REMARK   66  A    between atoms: _150  and  _152
REMARK   67  A    between atoms: _152  and  _153
REMARK   68  A    between atoms: _152  and  _155
REMARK   69  A    between atoms: _155  and  _156
REMARK   70  A    between atoms: _159  and  _161
REMARK   71  A    between atoms: _161  and  _162
REMARK   72  A    between atoms: _164  and  _166
REMARK   73  A    between atoms: _166  and  _167
REMARK   74  A    between atoms: _169  and  _171
REMARK   75  A    between atoms: _171  and  _172
REMARK   76  A    between atoms: _171  and  _174
REMARK   77  A    between atoms: _174  and  _175
REMARK   78  A    between atoms: _181  and  _183
REMARK   79  A    between atoms: _183  and  _184
REMARK   80  A    between atoms: _183  and  _186
REMARK   81  A    between atoms: _186  and  _187
REMARK   82  A    between atoms: _190  and  _192
REMARK   83  A    between atoms: _192  and  _193
REMARK   84  A    between atoms: _192  and  _195
REMARK   85  A    between atoms: _198  and  _200
REMARK   86  A    between atoms: _200  and  _201
REMARK   87  A    between atoms: _200  and  _203
REMARK   88  A    between atoms: _203  and  _204
REMARK   89  A    between atoms: _207  and  _209
REMARK   90  A    between atoms: _209  and  _210
REMARK   91  A    between atoms: _209  and  _212
REMARK   92  A    between atoms: _212  and  _213
REMARK   93  A    between atoms: _217  and  _218
REMARK   94  A    between atoms: _223  and  _225
REMARK   95  A    between atoms: _225  and  _226
REMARK   96  A    between atoms: _225  and  _228
REMARK   97  A    between atoms: _228  and  _229
REMARK   98  A    between atoms: _232  and  _234
REMARK   99  A    between atoms: _234  and  _235
REMARK  100  A    between atoms: _234  and  _237
REMARK  101  A    between atoms: _237  and  _238
REMARK  102  A    between atoms: _243  and  _245
REMARK  103  A    between atoms: _245  and  _246
REMARK  104  A    between atoms: _245  and  _248
REMARK  105  A    between atoms: _251  and  _253
REMARK  106  A    between atoms: _253  and  _254
REMARK  107  A    between atoms: _253  and  _256
REMARK  108  A    between atoms: _256  and  _257
REMARK  109  A    between atoms: _260  and  _262
REMARK  110  A    between atoms: _262  and  _263
REMARK  111  A    between atoms: _265  and  _267
REMARK  112  A    between atoms: _267  and  _268
REMARK  113  A    between atoms: _267  and  _270
REMARK  114  A    between atoms: _270  and  _271
REMARK  115  A    between atoms: _271  and  _272
REMARK  116  A    between atoms: _272  and  _273
REMARK  117  A    between atoms: _282  and  _284
REMARK  118  A    between atoms: _284  and  _285
REMARK  119  A    between atoms: _284  and  _287
REMARK  120  A    between atoms: _287  and  _288
REMARK  121  A    between atoms: _293  and  _295
REMARK  122  A    between atoms: _295  and  _296
REMARK  123  A    between atoms: _295  and  _298
REMARK  124  A    between atoms: _298  and  _299
REMARK  125  A    between atoms: _299  and  _300
REMARK  126  A    between atoms: _300  and  _301
REMARK  127  A    between atoms: _310  and  _312
REMARK  128  A    between atoms: _312  and  _313
REMARK  129  A    between atoms: _312  and  _315
REMARK  130  A    between atoms: _315  and  _316
REMARK  131  A    between atoms: _319  and  _321
REMARK  132  A    between atoms: _321  and  _322
REMARK  133  A    between atoms: _321  and  _324
REMARK  134  A    between atoms: _324  and  _325
REMARK  135  A    between atoms: _328  and  _330
REMARK  136  A    between atoms: _330  and  _331
REMARK  137  A    between atoms: _330  and  _333
REMARK  138  A    between atoms: _333  and  _334
REMARK  139  A    between atoms: _337  and  _339
REMARK  140  A    between atoms: _339  and  _340
REMARK  141  A    between atoms: _339  and  _342
REMARK  142  A    between atoms: _342  and  _343
REMARK  143  A    between atoms: _346  and  _348
REMARK  144  A    between atoms: _348  and  _349
REMARK  145  A    between atoms: _348  and  _351
REMARK  146  A    between atoms: _351  and  _352
REMARK  147  A    between atoms: _355  and  _357
REMARK  148  A    between atoms: _357  and  _358
REMARK  149  A    between atoms: _360  and  _362
REMARK  150  A    between atoms: _362  and  _363
REMARK  151  A    between atoms: _366  and  _368
REMARK  152  A    between atoms: _368  and  _369
REMARK  153  A    between atoms: _368  and  _371
REMARK  154  A    between atoms: _371  and  _372
REMARK  155  A    between atoms: _375  and  _377
REMARK  156  A    between atoms: _377  and  _378
REMARK  157  A    between atoms: _377  and  _380
REMARK  158  A    between atoms: _380  and  _381
REMARK  159  A    between atoms: _384  and  _386
REMARK  160  A    between atoms: _386  and  _387
REMARK  161  A    between atoms: _386  and  _389
REMARK  162  A    between atoms: _389  and  _390
REMARK  163  A    between atoms: _393  and  _395
REMARK  164  A    between atoms: _395  and  _396
REMARK  165  A    between atoms: _395  and  _398
REMARK  166  A    between atoms: _401  and  _403
REMARK  167  A    between atoms: _403  and  _404
REMARK  168  A    between atoms: _403  and  _406
REMARK  169  A    between atoms: _406  and  _407
REMARK  170  A    between atoms: _407  and  _408
REMARK  171  A    between atoms: _408  and  _409
REMARK  172  A    between atoms: _409  and  _410
REMARK  173  A    between atoms: _414  and  _416
REMARK  174  A    between atoms: _416  and  _417
REMARK  175  A    between atoms: _416  and  _419
REMARK  176  A    between atoms: _419  and  _420
REMARK  177  A    between atoms: _420  and  _421
REMARK  178  A    between atoms: _423  and  _425
REMARK  179  A    between atoms: _425  and  _426
REMARK  180  A    between atoms: _425  and  _428
REMARK  181  A    between atoms: _428  and  _429
REMARK  182  A    between atoms: _432  and  _434
REMARK  183  A    between atoms: _434  and  _435
REMARK  184  A    between atoms: _437  and  _439
REMARK  185  A    between atoms: _439  and  _440
REMARK  186  A    between atoms: _442  and  _444
REMARK  187  A    between atoms: _444  and  _445
REMARK  188  A    between atoms: _444  and  _447
REMARK  189  A    between atoms: _447  and  _448
REMARK  190  A    between atoms: _451  and  _453
REMARK  191  A    between atoms: _453  and  _454
REMARK  192  A    between atoms: _456  and  _458
REMARK  193  A    between atoms: _458  and  _459
REMARK  194  A    between atoms: _461  and  _463
REMARK  195  A    between atoms: _463  and  _464
REMARK  196  A    between atoms: _463  and  _466
REMARK  197  A    between atoms: _466  and  _467
REMARK  198  A    between atoms: _473  and  _475
REMARK  199  A    between atoms: _475  and  _476
REMARK  200  A    between atoms: _475  and  _478
REMARK  201  A    between atoms: _478  and  _479
REMARK  202  A    between atoms: _482  and  _484
REMARK  203  A    between atoms: _484  and  _485
REMARK  204  A    between atoms: _484  and  _487
REMARK  205  A    between atoms: _490  and  _492
REMARK  206  A    between atoms: _492  and  _493
REMARK  207  A    between atoms: _492  and  _495
REMARK  208  A    between atoms: _495  and  _496
REMARK  209  A    between atoms: _499  and  _501
REMARK  210  A    between atoms: _501  and  _502
REMARK  211  A    between atoms: _501  and  _504
REMARK  212  A    between atoms: _504  and  _505
REMARK  213  A    between atoms: _509  and  _510
REMARK  214  A    between atoms: _515  and  _517
REMARK  215  A    between atoms: _517  and  _518
REMARK  216  A    between atoms: _517  and  _520
REMARK  217  A    between atoms: _520  and  _521
REMARK  218  A    between atoms: _524  and  _526
REMARK  219  A    between atoms: _526  and  _527
REMARK  220  A    between atoms: _526  and  _529
REMARK  221  A    between atoms: _529  and  _530
REMARK  222  A    between atoms: _535  and  _537
REMARK  223  A    between atoms: _537  and  _538
REMARK  224  A    between atoms: _537  and  _540
REMARK  225  A    between atoms: _543  and  _545
REMARK  226  A    between atoms: _545  and  _546
REMARK  227  A    between atoms: _545  and  _548
REMARK  228  A    between atoms: _548  and  _549
REMARK  229  A    between atoms: _552  and  _554
REMARK  230  A    between atoms: _554  and  _555
REMARK  231  A    between atoms: _557  and  _559
REMARK  232  A    between atoms: _559  and  _560
REMARK  233  A    between atoms: _559  and  _562
REMARK  234  A    between atoms: _562  and  _563
REMARK  235  A    between atoms: _563  and  _564
REMARK  236  A    between atoms: _564  and  _565
REMARK  237  A    between atoms: _574  and  _576
REMARK  238  A    between atoms: _576  and  _577
REMARK  239  A    between atoms: _576  and  _579
REMARK  240  A    between atoms: _579  and  _580
REMARK                            x       y       z     vdW  Elec       q    Type
REMARK                         _______ _______ _______ _____ _____    ______ ____
ROOT
ATOM      1  O   HOH     1      19.530  23.814  16.674  0.00  0.00    +0.000 OA
ENDROOT
TORSDOF 0
REMARK  Name = ../refined-set-2016/2wl0/2wl0_pocket.pdb
REMARK  240 active torsions:
REMARK  status: ('A' for Active; 'I' for Inactive)
REMARK    1  A    between atoms: _1  and  _3
REMARK    2  A    between atoms: _3  and  _4
REMARK    3  A    between atoms: _3  and  _6
REMARK    4  A    between atoms: _6  and  _7
REMARK    5  A    between atoms: _7  and  _8
REMARK    6  A    between atoms: _8  and  _9
REMARK    7  A    between atoms: _18  and  _20
REMARK    8  A    between atoms: _20  and  _21
REMARK    9  A    between atoms: _20  and  _23
REMARK   10  A    between atoms: _23  and  _24
REMARK   11  A    between atoms: _27  and  _29
REMARK   12  A    between atoms: _29  and  _30
REMARK   13  A    between atoms: _29  and  _32
REMARK   14  A    between atoms: _32  and  _33
REMARK   15  A    between atoms: _36  and  _38
REMARK   16  A    between atoms: _38  and  _39
REMARK   17  A    between atoms: _38  and  _41
REMARK   18  A    between atoms: _41  and  _42
REMARK   19  A    between atoms: _45  and  _47
REMARK   20  A    between atoms: _47  and  _48
REMARK   21  A    between atoms: _47  and  _50
REMARK   22  A    between atoms: _50  and  _51
REMARK   23  A    between atoms: _54  and  _56
REMARK   24  A    between atoms: _56  and  _57
REMARK   25  A    between atoms: _59  and  _61
REMARK   26  A    between atoms: _61  and  _62
REMARK   27  A    between atoms: _65  and  _67
REMARK   28  A    between atoms: _67  and  _68
REMARK   29  A    between atoms: _67  and  _70
REMARK   30  A    between atoms: _70  and  _71
REMARK   31  A    between atoms: _74  and  _76
REMARK   32  A    between atoms: _76  and  _77
REMARK   33  A    between atoms: _76  and  _79
REMARK   34  A    between atoms: _79  and  _80
REMARK   35  A    between atoms: _83  and  _85
REMARK   36  A    between atoms: _85  and  _86
REMARK   37  A    between atoms: _85  and  _88
REMARK   38  A    between atoms: _88  and  _89
REMARK   39  A    between atoms: _92  and  _94
REMARK   40  A    between atoms: _94  and  _95
REMARK   41  A    between atoms: _94  and  _97
REMARK   42  A    between atoms: _100  and  _102
REMARK   43  A    between atoms: _102  and  _103
REMARK   44  A    between atoms: _102  and  _105
REMARK   45  A    between atoms: _105  and  _106
REMARK   46  A    between atoms: _109  and  _111
REMARK   47  A    between atoms: _111  and  _112
REMARK   48  A    between atoms: _111  and  _114
REMARK   49  A    between atoms: _114  and  _115
REMARK   50  A    between atoms: _115  and  _116
REMARK   51  A    between atoms: _116  and  _117
REMARK   52  A    between atoms: _117  and  _118
REMARK   53  A    between atoms: _122  and  _124
REMARK   54  A    between atoms: _124  and  _125
REMARK   55  A    between atoms: _124  and  _127
REMARK   56  A    between atoms: _127  and  _128
REMARK   57  A    between atoms: _128  and  _129
REMARK   58  A    between atoms: _131  and  _133
REMARK   59  A    between atoms: _133  and  _134
REMARK   60  A    between atoms: _133  and  _136
REMARK   61  A    between atoms: _136  and  _137
REMARK   62  A    between atoms: _140  and  _142
REMARK   63  A    between atoms: _142  and  _143
REMARK   64  A    between atoms: _145  and  _147
REMARK   65  A    between atoms: _147  and  _148
REMARK   66  A    between atoms: _150  and  _152
REMARK   67  A    between atoms: _152  and  _153
REMARK   68  A    between atoms: _152  and  _155
REMARK   69  A    between atoms: _155  and  _156
REMARK   70  A    between atoms: _159  and  _161
REMARK   71  A    between atoms: _161  and  _162
REMARK   72  A    between atoms: _164  and  _166
REMARK   73  A    between atoms: _166  and  _167
REMARK   74  A    between atoms: _169  and  _171
REMARK   75  A    between atoms: _171  and  _172
REMARK   76  A    between atoms: _171  and  _174
REMARK   77  A    between atoms: _174  and  _175
REMARK   78  A    between atoms: _181  and  _183
REMARK   79  A    between atoms: _183  and  _184
REMARK   80  A    between atoms: _183  and  _186
REMARK   81  A    between atoms: _186  and  _187
REMARK   82  A    between atoms: _190  and  _192
REMARK   83  A    between atoms: _192  and  _193
REMARK   84  A    between atoms: _192  and  _195
REMARK   85  A    between atoms: _198  and  _200
REMARK   86  A    between atoms: _200  and  _201
REMARK   87  A    between atoms: _200  and  _203
REMARK   88  A    between atoms: _203  and  _204
REMARK   89  A    between atoms: _207  and  _209
REMARK   90  A    between atoms: _209  and  _210
REMARK   91  A    between atoms: _209  and  _212
REMARK   92  A    between atoms: _212  and  _213
REMARK   93  A    between atoms: _217  and  _218
REMARK   94  A    between atoms: _223  and  _225
REMARK   95  A    between atoms: _225  and  _226
REMARK   96  A    between atoms: _225  and  _228
REMARK   97  A    between atoms: _228  and  _229
REMARK   98  A    between atoms: _232  and  _234
REMARK   99  A    between atoms: _234  and  _235
REMARK  100  A    between atoms: _234  and  _237
REMARK  101  A    between atoms: _237  and  _238
REMARK  102  A    between atoms: _243  and  _245
REMARK  103  A    between atoms: _245  and  _246
REMARK  104  A    between atoms: _245  and  _248
REMARK  105  A    between atoms: _251  and  _253
REMARK  106  A    between atoms: _253  and  _254
REMARK  107  A    between atoms: _253  and  _256
REMARK  108  A    between atoms: _256  and  _257
REMARK  109  A    between atoms: _260  and  _262
REMARK  110  A    between atoms: _262  and  _263
REMARK  111  A    between atoms: _265  and  _267
REMARK  112  A    between atoms: _267  and  _268
REMARK  113  A    between atoms: _267  and  _270
REMARK  114  A    between atoms: _270  and  _271
REMARK  115  A    between atoms: _271  and  _272
REMARK  116  A    between atoms: _272  and  _273
REMARK  117  A    between atoms: _282  and  _284
REMARK  118  A    between atoms: _284  and  _285
REMARK  119  A    between atoms: _284  and  _287
REMARK  120  A    between atoms: _287  and  _288
REMARK  121  A    between atoms: _293  and  _295
REMARK  122  A    between atoms: _295  and  _296
REMARK  123  A    between atoms: _295  and  _298
REMARK  124  A    between atoms: _298  and  _299
REMARK  125  A    between atoms: _299  and  _300
REMARK  126  A    between atoms: _300  and  _301
REMARK  127  A    between atoms: _310  and  _312
REMARK  128  A    between atoms: _312  and  _313
REMARK  129  A    between atoms: _312  and  _315
REMARK  130  A    between atoms: _315  and  _316
REMARK  131  A    between atoms: _319  and  _321
REMARK  132  A    between atoms: _321  and  _322
REMARK  133  A    between atoms: _321  and  _324
REMARK  134  A    between atoms: _324  and  _325
REMARK  135  A    between atoms: _328  and  _330
REMARK  136  A    between atoms: _330  and  _331
REMARK  137  A    between atoms: _330  and  _333
REMARK  138  A    between atoms: _333  and  _334
REMARK  139  A    between atoms: _337  and  _339
REMARK  140  A    between atoms: _339  and  _340
REMARK  141  A    between atoms: _339  and  _342
REMARK  142  A    between atoms: _342  and  _343
REMARK  143  A    between atoms: _346  and  _348
REMARK  144  A    between atoms: _348  and  _349
REMARK  145  A    between atoms: _348  and  _351
REMARK  146  A    between atoms: _351  and  _352
REMARK  147  A    between atoms: _355  and  _357
REMARK  148  A    between atoms: _357  and  _358
REMARK  149  A    between atoms: _360  and  _362
REMARK  150  A    between atoms: _362  and  _363
REMARK  151  A    between atoms: _366  and  _368
REMARK  152  A    between atoms: _368  and  _369
REMARK  153  A    between atoms: _368  and  _371
REMARK  154  A    between atoms: _371  and  _372
REMARK  155  A    between atoms: _375  and  _377
REMARK  156  A    between atoms: _377  and  _378
REMARK  157  A    between atoms: _377  and  _380
REMARK  158  A    between atoms: _380  and  _381
REMARK  159  A    between atoms: _384  and  _386
REMARK  160  A    between atoms: _386  and  _387
REMARK  161  A    between atoms: _386  and  _389
REMARK  162  A    between atoms: _389  and  _390
REMARK  163  A    between atoms: _393  and  _395
REMARK  164  A    between atoms: _395  and  _396
REMARK  165  A    between atoms: _395  and  _398
REMARK  166  A    between atoms: _401  and  _403
REMARK  167  A    between atoms: _403  and  _404
REMARK  168  A    between atoms: _403  and  _406
REMARK  169  A    between atoms: _406  and  _407
REMARK  170  A    between atoms: _407  and  _408
REMARK  171  A    between atoms: _408  and  _409
REMARK  172  A    between atoms: _409  and  _410
REMARK  173  A    between atoms: _414  and  _416
REMARK  174  A    between atoms: _416  and  _417
REMARK  175  A    between atoms: _416  and  _419
REMARK  176  A    between atoms: _419  and  _420
REMARK  177  A    between atoms: _420  and  _421
REMARK  178  A    between atoms: _423  and  _425
REMARK  179  A    between atoms: _425  and  _426
REMARK  180  A    between atoms: _425  and  _428
REMARK  181  A    between atoms: _428  and  _429
REMARK  182  A    between atoms: _432  and  _434
REMARK  183  A    between atoms: _434  and  _435
REMARK  184  A    between atoms: _437  and  _439
REMARK  185  A    between atoms: _439  and  _440
REMARK  186  A    between atoms: _442  and  _444
REMARK  187  A    between atoms: _444  and  _445
REMARK  188  A    between atoms: _444  and  _447
REMARK  189  A    between atoms: _447  and  _448
REMARK  190  A    between atoms: _451  and  _453
REMARK  191  A    between atoms: _453  and  _454
REMARK  192  A    between atoms: _456  and  _458
REMARK  193  A    between atoms: _458  and  _459
REMARK  194  A    between atoms: _461  and  _463
REMARK  195  A    between atoms: _463  and  _464
REMARK  196  A    between atoms: _463  and  _466
REMARK  197  A    between atoms: _466  and  _467
REMARK  198  A    between atoms: _473  and  _475
REMARK  199  A    between atoms: _475  and  _476
REMARK  200  A    between atoms: _475  and  _478
REMARK  201  A    between atoms: _478  and  _479
REMARK  202  A    between atoms: _482  and  _484
REMARK  203  A    between atoms: _484  and  _485
REMARK  204  A    between atoms: _484  and  _487
REMARK  205  A    between atoms: _490  and  _492
REMARK  206  A    between atoms: _492  and  _493
REMARK  207  A    between atoms: _492  and  _495
REMARK  208  A    between atoms: _495  and  _496
REMARK  209  A    between atoms: _499  and  _501
REMARK  210  A    between atoms: _501  and  _502
REMARK  211  A    between atoms: _501  and  _504
REMARK  212  A    between atoms: _504  and  _505
REMARK  213  A    between atoms: _509  and  _510
REMARK  214  A    between atoms: _515  and  _517
REMARK  215  A    between atoms: _517  and  _518
REMARK  216  A    between atoms: _517  and  _520
REMARK  217  A    between atoms: _520  and  _521
REMARK  218  A    between atoms: _524  and  _526
REMARK  219  A    between atoms: _526  and  _527
REMARK  220  A    between atoms: _526  and  _529
REMARK  221  A    between atoms: _529  and  _530
REMARK  222  A    between atoms: _535  and  _537
REMARK  223  A    between atoms: _537  and  _538
REMARK  224  A    between atoms: _537  and  _540
REMARK  225  A    between atoms: _543  and  _545
REMARK  226  A    between atoms: _545  and  _546
REMARK  227  A    between atoms: _545  and  _548
REMARK  228  A    between atoms: _548  and  _549
REMARK  229  A    between atoms: _552  and  _554
REMARK  230  A    between atoms: _554  and  _555
REMARK  231  A    between atoms: _557  and  _559
REMARK  232  A    between atoms: _559  and  _560
REMARK  233  A    between atoms: _559  and  _562
REMARK  234  A    between atoms: _562  and  _563
REMARK  235  A    between atoms: _563  and  _564
REMARK  236  A    between atoms: _564  and  _565
REMARK  237  A    between atoms: _574  and  _576
REMARK  238  A    between atoms: _576  and  _577
REMARK  239  A    between atoms: _576  and  _579
REMARK  240  A    between atoms: _579  and  _580
REMARK                            x       y       z     vdW  Elec       q    Type
REMARK                         _______ _______ _______ _____ _____    ______ ____
ROOT
ATOM      1  O   HOH     1       4.305  24.513   5.121  0.00  0.00    +0.000 OA
ENDROOT
TORSDOF 0
REMARK  Name = ../refined-set-2016/2wl0/2wl0_pocket.pdb
REMARK  240 active torsions:
REMARK  status: ('A' for Active; 'I' for Inactive)
REMARK    1  A    between atoms: _1  and  _3
REMARK    2  A    between atoms: _3  and  _4
REMARK    3  A    between atoms: _3  and  _6
REMARK    4  A    between atoms: _6  and  _7
REMARK    5  A    between atoms: _7  and  _8
REMARK    6  A    between atoms: _8  and  _9
REMARK    7  A    between atoms: _18  and  _20
REMARK    8  A    between atoms: _20  and  _21
REMARK    9  A    between atoms: _20  and  _23
REMARK   10  A    between atoms: _23  and  _24
REMARK   11  A    between atoms: _27  and  _29
REMARK   12  A    between atoms: _29  and  _30
REMARK   13  A    between atoms: _29  and  _32
REMARK   14  A    between atoms: _32  and  _33
REMARK   15  A    between atoms: _36  and  _38
REMARK   16  A    between atoms: _38  and  _39
REMARK   17  A    between atoms: _38  and  _41
REMARK   18  A    between atoms: _41  and  _42
REMARK   19  A    between atoms: _45  and  _47
REMARK   20  A    between atoms: _47  and  _48
REMARK   21  A    between atoms: _47  and  _50
REMARK   22  A    between atoms: _50  and  _51
REMARK   23  A    between atoms: _54  and  _56
REMARK   24  A    between atoms: _56  and  _57
REMARK   25  A    between atoms: _59  and  _61
REMARK   26  A    between atoms: _61  and  _62
REMARK   27  A    between atoms: _65  and  _67
REMARK   28  A    between atoms: _67  and  _68
REMARK   29  A    between atoms: _67  and  _70
REMARK   30  A    between atoms: _70  and  _71
REMARK   31  A    between atoms: _74  and  _76
REMARK   32  A    between atoms: _76  and  _77
REMARK   33  A    between atoms: _76  and  _79
REMARK   34  A    between atoms: _79  and  _80
REMARK   35  A    between atoms: _83  and  _85
REMARK   36  A    between atoms: _85  and  _86
REMARK   37  A    between atoms: _85  and  _88
REMARK   38  A    between atoms: _88  and  _89
REMARK   39  A    between atoms: _92  and  _94
REMARK   40  A    between atoms: _94  and  _95
REMARK   41  A    between atoms: _94  and  _97
REMARK   42  A    between atoms: _100  and  _102
REMARK   43  A    between atoms: _102  and  _103
REMARK   44  A    between atoms: _102  and  _105
REMARK   45  A    between atoms: _105  and  _106
REMARK   46  A    between atoms: _109  and  _111
REMARK   47  A    between atoms: _111  and  _112
REMARK   48  A    between atoms: _111  and  _114
REMARK   49  A    between atoms: _114  and  _115
REMARK   50  A    between atoms: _115  and  _116
REMARK   51  A    between atoms: _116  and  _117
REMARK   52  A    between atoms: _117  and  _118
REMARK   53  A    between atoms: _122  and  _124
REMARK   54  A    between atoms: _124  and  _125
REMARK   55  A    between atoms: _124  and  _127
REMARK   56  A    between atoms: _127  and  _128
REMARK   57  A    between atoms: _128  and  _129
REMARK   58  A    between atoms: _131  and  _133
REMARK   59  A    between atoms: _133  and  _134
REMARK   60  A    between atoms: _133  and  _136
REMARK   61  A    between atoms: _136  and  _137
REMARK   62  A    between atoms: _140  and  _142
REMARK   63  A    between atoms: _142  and  _143
REMARK   64  A    between atoms: _145  and  _147
REMARK   65  A    between atoms: _147  and  _148
REMARK   66  A    between atoms: _150  and  _152
REMARK   67  A    between atoms: _152  and  _153
REMARK   68  A    between atoms: _152  and  _155
REMARK   69  A    between atoms: _155  and  _156
REMARK   70  A    between atoms: _159  and  _161
REMARK   71  A    between atoms: _161  and  _162
REMARK   72  A    between atoms: _164  and  _166
REMARK   73  A    between atoms: _166  and  _167
REMARK   74  A    between atoms: _169  and  _171
REMARK   75  A    between atoms: _171  and  _172
REMARK   76  A    between atoms: _171  and  _174
REMARK   77  A    between atoms: _174  and  _175
REMARK   78  A    between atoms: _181  and  _183
REMARK   79  A    between atoms: _183  and  _184
REMARK   80  A    between atoms: _183  and  _186
REMARK   81  A    between atoms: _186  and  _187
REMARK   82  A    between atoms: _190  and  _192
REMARK   83  A    between atoms: _192  and  _193
REMARK   84  A    between atoms: _192  and  _195
REMARK   85  A    between atoms: _198  and  _200
REMARK   86  A    between atoms: _200  and  _201
REMARK   87  A    between atoms: _200  and  _203
REMARK   88  A    between atoms: _203  and  _204
REMARK   89  A    between atoms: _207  and  _209
REMARK   90  A    between atoms: _209  and  _210
REMARK   91  A    between atoms: _209  and  _212
REMARK   92  A    between atoms: _212  and  _213
REMARK   93  A    between atoms: _217  and  _218
REMARK   94  A    between atoms: _223  and  _225
REMARK   95  A    between atoms: _225  and  _226
REMARK   96  A    between atoms: _225  and  _228
REMARK   97  A    between atoms: _228  and  _229
REMARK   98  A    between atoms: _232  and  _234
REMARK   99  A    between atoms: _234  and  _235
REMARK  100  A    between atoms: _234  and  _237
REMARK  101  A    between atoms: _237  and  _238
REMARK  102  A    between atoms: _243  and  _245
REMARK  103  A    between atoms: _245  and  _246
REMARK  104  A    between atoms: _245  and  _248
REMARK  105  A    between atoms: _251  and  _253
REMARK  106  A    between atoms: _253  and  _254
REMARK  107  A    between atoms: _253  and  _256
REMARK  108  A    between atoms: _256  and  _257
REMARK  109  A    between atoms: _260  and  _262
REMARK  110  A    between atoms: _262  and  _263
REMARK  111  A    between atoms: _265  and  _267
REMARK  112  A    between atoms: _267  and  _268
REMARK  113  A    between atoms: _267  and  _270
REMARK  114  A    between atoms: _270  and  _271
REMARK  115  A    between atoms: _271  and  _272
REMARK  116  A    between atoms: _272  and  _273
REMARK  117  A    between atoms: _282  and  _284
REMARK  118  A    between atoms: _284  and  _285
REMARK  119  A    between atoms: _284  and  _287
REMARK  120  A    between atoms: _287  and  _288
REMARK  121  A    between atoms: _293  and  _295
REMARK  122  A    between atoms: _295  and  _296
REMARK  123  A    between atoms: _295  and  _298
REMARK  124  A    between atoms: _298  and  _299
REMARK  125  A    between atoms: _299  and  _300
REMARK  126  A    between atoms: _300  and  _301
REMARK  127  A    between atoms: _310  and  _312
REMARK  128  A    between atoms: _312  and  _313
REMARK  129  A    between atoms: _312  and  _315
REMARK  130  A    between atoms: _315  and  _316
REMARK  131  A    between atoms: _319  and  _321
REMARK  132  A    between atoms: _321  and  _322
REMARK  133  A    between atoms: _321  and  _324
REMARK  134  A    between atoms: _324  and  _325
REMARK  135  A    between atoms: _328  and  _330
REMARK  136  A    between atoms: _330  and  _331
REMARK  137  A    between atoms: _330  and  _333
REMARK  138  A    between atoms: _333  and  _334
REMARK  139  A    between atoms: _337  and  _339
REMARK  140  A    between atoms: _339  and  _340
REMARK  141  A    between atoms: _339  and  _342
REMARK  142  A    between atoms: _342  and  _343
REMARK  143  A    between atoms: _346  and  _348
REMARK  144  A    between atoms: _348  and  _349
REMARK  145  A    between atoms: _348  and  _351
REMARK  146  A    between atoms: _351  and  _352
REMARK  147  A    between atoms: _355  and  _357
REMARK  148  A    between atoms: _357  and  _358
REMARK  149  A    between atoms: _360  and  _362
REMARK  150  A    between atoms: _362  and  _363
REMARK  151  A    between atoms: _366  and  _368
REMARK  152  A    between atoms: _368  and  _369
REMARK  153  A    between atoms: _368  and  _371
REMARK  154  A    between atoms: _371  and  _372
REMARK  155  A    between atoms: _375  and  _377
REMARK  156  A    between atoms: _377  and  _378
REMARK  157  A    between atoms: _377  and  _380
REMARK  158  A    between atoms: _380  and  _381
REMARK  159  A    between atoms: _384  and  _386
REMARK  160  A    between atoms: _386  and  _387
REMARK  161  A    between atoms: _386  and  _389
REMARK  162  A    between atoms: _389  and  _390
REMARK  163  A    between atoms: _393  and  _395
REMARK  164  A    between atoms: _395  and  _396
REMARK  165  A    between atoms: _395  and  _398
REMARK  166  A    between atoms: _401  and  _403
REMARK  167  A    between atoms: _403  and  _404
REMARK  168  A    between atoms: _403  and  _406
REMARK  169  A    between atoms: _406  and  _407
REMARK  170  A    between atoms: _407  and  _408
REMARK  171  A    between atoms: _408  and  _409
REMARK  172  A    between atoms: _409  and  _410
REMARK  173  A    between atoms: _414  and  _416
REMARK  174  A    between atoms: _416  and  _417
REMARK  175  A    between atoms: _416  and  _419
REMARK  176  A    between atoms: _419  and  _420
REMARK  177  A    between atoms: _420  and  _421
REMARK  178  A    between atoms: _423  and  _425
REMARK  179  A    between atoms: _425  and  _426
REMARK  180  A    between atoms: _425  and  _428
REMARK  181  A    between atoms: _428  and  _429
REMARK  182  A    between atoms: _432  and  _434
REMARK  183  A    between atoms: _434  and  _435
REMARK  184  A    between atoms: _437  and  _439
REMARK  185  A    between atoms: _439  and  _440
REMARK  186  A    between atoms: _442  and  _444
REMARK  187  A    between atoms: _444  and  _445
REMARK  188  A    between atoms: _444  and  _447
REMARK  189  A    between atoms: _447  and  _448
REMARK  190  A    between atoms: _451  and  _453
REMARK  191  A    between atoms: _453  and  _454
REMARK  192  A    between atoms: _456  and  _458
REMARK  193  A    between atoms: _458  and  _459
REMARK  194  A    between atoms: _461  and  _463
REMARK  195  A    between atoms: _463  and  _464
REMARK  196  A    between atoms: _463  and  _466
REMARK  197  A    between atoms: _466  and  _467
REMARK  198  A    between atoms: _473  and  _475
REMARK  199  A    between atoms: _475  and  _476
REMARK  200  A    between atoms: _475  and  _478
REMARK  201  A    between atoms: _478  and  _479
REMARK  202  A    between atoms: _482  and  _484
REMARK  203  A    between atoms: _484  and  _485
REMARK  204  A    between atoms: _484  and  _487
REMARK  205  A    between atoms: _490  and  _492
REMARK  206  A    between atoms: _492  and  _493
REMARK  207  A    between atoms: _492  and  _495
REMARK  208  A    between atoms: _495  and  _496
REMARK  209  A    between atoms: _499  and  _501
REMARK  210  A    between atoms: _501  and  _502
REMARK  211  A    between atoms: _501  and  _504
REMARK  212  A    between atoms: _504  and  _505
REMARK  213  A    between atoms: _509  and  _510
REMARK  214  A    between atoms: _515  and  _517
REMARK  215  A    between atoms: _517  and  _518
REMARK  216  A    between atoms: _517  and  _520
REMARK  217  A    between atoms: _520  and  _521
REMARK  218  A    between atoms: _524  and  _526
REMARK  219  A    between atoms: _526  and  _527
REMARK  220  A    between atoms: _526  and  _529
REMARK  221  A    between atoms: _529  and  _530
REMARK  222  A    between atoms: _535  and  _537
REMARK  223  A    between atoms: _537  and  _538
REMARK  224  A    between atoms: _537  and  _540
REMARK  225  A    between atoms: _543  and  _545
REMARK  226  A    between atoms: _545  and  _546
REMARK  227  A    between atoms: _545  and  _548
REMARK  228  A    between atoms: _548  and  _549
REMARK  229  A    between atoms: _552  and  _554
REMARK  230  A    between atoms: _554  and  _555
REMARK  231  A    between atoms: _557  and  _559
REMARK  232  A    between atoms: _559  and  _560
REMARK  233  A    between atoms: _559  and  _562
REMARK  234  A    between atoms: _562  and  _563
REMARK  235  A    between atoms: _563  and  _564
REMARK  236  A    between atoms: _564  and  _565
REMARK  237  A    between atoms: _574  and  _576
REMARK  238  A    between atoms: _576  and  _577
REMARK  239  A    between atoms: _576  and  _579
REMARK  240  A    between atoms: _579  and  _580
REMARK                            x       y       z     vdW  Elec       q    Type
REMARK                         _______ _______ _______ _____ _____    ______ ____
ROOT
ATOM      1  O   HOH     1       3.964  26.143   7.389  0.00  0.00    +0.000 OA
ENDROOT
TORSDOF 0
REMARK  Name = ../refined-set-2016/2wl0/2wl0_pocket.pdb
REMARK  240 active torsions:
REMARK  status: ('A' for Active; 'I' for Inactive)
REMARK    1  A    between atoms: _1  and  _3
REMARK    2  A    between atoms: _3  and  _4
REMARK    3  A    between atoms: _3  and  _6
REMARK    4  A    between atoms: _6  and  _7
REMARK    5  A    between atoms: _7  and  _8
REMARK    6  A    between atoms: _8  and  _9
REMARK    7  A    between atoms: _18  and  _20
REMARK    8  A    between atoms: _20  and  _21
REMARK    9  A    between atoms: _20  and  _23
REMARK   10  A    between atoms: _23  and  _24
REMARK   11  A    between atoms: _27  and  _29
REMARK   12  A    between atoms: _29  and  _30
REMARK   13  A    between atoms: _29  and  _32
REMARK   14  A    between atoms: _32  and  _33
REMARK   15  A    between atoms: _36  and  _38
REMARK   16  A    between atoms: _38  and  _39
REMARK   17  A    between atoms: _38  and  _41
REMARK   18  A    between atoms: _41  and  _42
REMARK   19  A    between atoms: _45  and  _47
REMARK   20  A    between atoms: _47  and  _48
REMARK   21  A    between atoms: _47  and  _50
REMARK   22  A    between atoms: _50  and  _51
REMARK   23  A    between atoms: _54  and  _56
REMARK   24  A    between atoms: _56  and  _57
REMARK   25  A    between atoms: _59  and  _61
REMARK   26  A    between atoms: _61  and  _62
REMARK   27  A    between atoms: _65  and  _67
REMARK   28  A    between atoms: _67  and  _68
REMARK   29  A    between atoms: _67  and  _70
REMARK   30  A    between atoms: _70  and  _71
REMARK   31  A    between atoms: _74  and  _76
REMARK   32  A    between atoms: _76  and  _77
REMARK   33  A    between atoms: _76  and  _79
REMARK   34  A    between atoms: _79  and  _80
REMARK   35  A    between atoms: _83  and  _85
REMARK   36  A    between atoms: _85  and  _86
REMARK   37  A    between atoms: _85  and  _88
REMARK   38  A    between atoms: _88  and  _89
REMARK   39  A    between atoms: _92  and  _94
REMARK   40  A    between atoms: _94  and  _95
REMARK   41  A    between atoms: _94  and  _97
REMARK   42  A    between atoms: _100  and  _102
REMARK   43  A    between atoms: _102  and  _103
REMARK   44  A    between atoms: _102  and  _105
REMARK   45  A    between atoms: _105  and  _106
REMARK   46  A    between atoms: _109  and  _111
REMARK   47  A    between atoms: _111  and  _112
REMARK   48  A    between atoms: _111  and  _114
REMARK   49  A    between atoms: _114  and  _115
REMARK   50  A    between atoms: _115  and  _116
REMARK   51  A    between atoms: _116  and  _117
REMARK   52  A    between atoms: _117  and  _118
REMARK   53  A    between atoms: _122  and  _124
REMARK   54  A    between atoms: _124  and  _125
REMARK   55  A    between atoms: _124  and  _127
REMARK   56  A    between atoms: _127  and  _128
REMARK   57  A    between atoms: _128  and  _129
REMARK   58  A    between atoms: _131  and  _133
REMARK   59  A    between atoms: _133  and  _134
REMARK   60  A    between atoms: _133  and  _136
REMARK   61  A    between atoms: _136  and  _137
REMARK   62  A    between atoms: _140  and  _142
REMARK   63  A    between atoms: _142  and  _143
REMARK   64  A    between atoms: _145  and  _147
REMARK   65  A    between atoms: _147  and  _148
REMARK   66  A    between atoms: _150  and  _152
REMARK   67  A    between atoms: _152  and  _153
REMARK   68  A    between atoms: _152  and  _155
REMARK   69  A    between atoms: _155  and  _156
REMARK   70  A    between atoms: _159  and  _161
REMARK   71  A    between atoms: _161  and  _162
REMARK   72  A    between atoms: _164  and  _166
REMARK   73  A    between atoms: _166  and  _167
REMARK   74  A    between atoms: _169  and  _171
REMARK   75  A    between atoms: _171  and  _172
REMARK   76  A    between atoms: _171  and  _174
REMARK   77  A    between atoms: _174  and  _175
REMARK   78  A    between atoms: _181  and  _183
REMARK   79  A    between atoms: _183  and  _184
REMARK   80  A    between atoms: _183  and  _186
REMARK   81  A    between atoms: _186  and  _187
REMARK   82  A    between atoms: _190  and  _192
REMARK   83  A    between atoms: _192  and  _193
REMARK   84  A    between atoms: _192  and  _195
REMARK   85  A    between atoms: _198  and  _200
REMARK   86  A    between atoms: _200  and  _201
REMARK   87  A    between atoms: _200  and  _203
REMARK   88  A    between atoms: _203  and  _204
REMARK   89  A    between atoms: _207  and  _209
REMARK   90  A    between atoms: _209  and  _210
REMARK   91  A    between atoms: _209  and  _212
REMARK   92  A    between atoms: _212  and  _213
REMARK   93  A    between atoms: _217  and  _218
REMARK   94  A    between atoms: _223  and  _225
REMARK   95  A    between atoms: _225  and  _226
REMARK   96  A    between atoms: _225  and  _228
REMARK   97  A    between atoms: _228  and  _229
REMARK   98  A    between atoms: _232  and  _234
REMARK   99  A    between atoms: _234  and  _235
REMARK  100  A    between atoms: _234  and  _237
REMARK  101  A    between atoms: _237  and  _238
REMARK  102  A    between atoms: _243  and  _245
REMARK  103  A    between atoms: _245  and  _246
REMARK  104  A    between atoms: _245  and  _248
REMARK  105  A    between atoms: _251  and  _253
REMARK  106  A    between atoms: _253  and  _254
REMARK  107  A    between atoms: _253  and  _256
REMARK  108  A    between atoms: _256  and  _257
REMARK  109  A    between atoms: _260  and  _262
REMARK  110  A    between atoms: _262  and  _263
REMARK  111  A    between atoms: _265  and  _267
REMARK  112  A    between atoms: _267  and  _268
REMARK  113  A    between atoms: _267  and  _270
REMARK  114  A    between atoms: _270  and  _271
REMARK  115  A    between atoms: _271  and  _272
REMARK  116  A    between atoms: _272  and  _273
REMARK  117  A    between atoms: _282  and  _284
REMARK  118  A    between atoms: _284  and  _285
REMARK  119  A    between atoms: _284  and  _287
REMARK  120  A    between atoms: _287  and  _288
REMARK  121  A    between atoms: _293  and  _295
REMARK  122  A    between atoms: _295  and  _296
REMARK  123  A    between atoms: _295  and  _298
REMARK  124  A    between atoms: _298  and  _299
REMARK  125  A    between atoms: _299  and  _300
REMARK  126  A    between atoms: _300  and  _301
REMARK  127  A    between atoms: _310  and  _312
REMARK  128  A    between atoms: _312  and  _313
REMARK  129  A    between atoms: _312  and  _315
REMARK  130  A    between atoms: _315  and  _316
REMARK  131  A    between atoms: _319  and  _321
REMARK  132  A    between atoms: _321  and  _322
REMARK  133  A    between atoms: _321  and  _324
REMARK  134  A    between atoms: _324  and  _325
REMARK  135  A    between atoms: _328  and  _330
REMARK  136  A    between atoms: _330  and  _331
REMARK  137  A    between atoms: _330  and  _333
REMARK  138  A    between atoms: _333  and  _334
REMARK  139  A    between atoms: _337  and  _339
REMARK  140  A    between atoms: _339  and  _340
REMARK  141  A    between atoms: _339  and  _342
REMARK  142  A    between atoms: _342  and  _343
REMARK  143  A    between atoms: _346  and  _348
REMARK  144  A    between atoms: _348  and  _349
REMARK  145  A    between atoms: _348  and  _351
REMARK  146  A    between atoms: _351  and  _352
REMARK  147  A    between atoms: _355  and  _357
REMARK  148  A    between atoms: _357  and  _358
REMARK  149  A    between atoms: _360  and  _362
REMARK  150  A    between atoms: _362  and  _363
REMARK  151  A    between atoms: _366  and  _368
REMARK  152  A    between atoms: _368  and  _369
REMARK  153  A    between atoms: _368  and  _371
REMARK  154  A    between atoms: _371  and  _372
REMARK  155  A    between atoms: _375  and  _377
REMARK  156  A    between atoms: _377  and  _378
REMARK  157  A    between atoms: _377  and  _380
REMARK  158  A    between atoms: _380  and  _381
REMARK  159  A    between atoms: _384  and  _386
REMARK  160  A    between atoms: _386  and  _387
REMARK  161  A    between atoms: _386  and  _389
REMARK  162  A    between atoms: _389  and  _390
REMARK  163  A    between atoms: _393  and  _395
REMARK  164  A    between atoms: _395  and  _396
REMARK  165  A    between atoms: _395  and  _398
REMARK  166  A    between atoms: _401  and  _403
REMARK  167  A    between atoms: _403  and  _404
REMARK  168  A    between atoms: _403  and  _406
REMARK  169  A    between atoms: _406  and  _407
REMARK  170  A    between atoms: _407  and  _408
REMARK  171  A    between atoms: _408  and  _409
REMARK  172  A    between atoms: _409  and  _410
REMARK  173  A    between atoms: _414  and  _416
REMARK  174  A    between atoms: _416  and  _417
REMARK  175  A    between atoms: _416  and  _419
REMARK  176  A    between atoms: _419  and  _420
REMARK  177  A    between atoms: _420  and  _421
REMARK  178  A    between atoms: _423  and  _425
REMARK  179  A    between atoms: _425  and  _426
REMARK  180  A    between atoms: _425  and  _428
REMARK  181  A    between atoms: _428  and  _429
REMARK  182  A    between atoms: _432  and  _434
REMARK  183  A    between atoms: _434  and  _435
REMARK  184  A    between atoms: _437  and  _439
REMARK  185  A    between atoms: _439  and  _440
REMARK  186  A    between atoms: _442  and  _444
REMARK  187  A    between atoms: _444  and  _445
REMARK  188  A    between atoms: _444  and  _447
REMARK  189  A    between atoms: _447  and  _448
REMARK  190  A    between atoms: _451  and  _453
REMARK  191  A    between atoms: _453  and  _454
REMARK  192  A    between atoms: _456  and  _458
REMARK  193  A    between atoms: _458  and  _459
REMARK  194  A    between atoms: _461  and  _463
REMARK  195  A    between atoms: _463  and  _464
REMARK  196  A    between atoms: _463  and  _466
REMARK  197  A    between atoms: _466  and  _467
REMARK  198  A    between atoms: _473  and  _475
REMARK  199  A    between atoms: _475  and  _476
REMARK  200  A    between atoms: _475  and  _478
REMARK  201  A    between atoms: _478  and  _479
REMARK  202  A    between atoms: _482  and  _484
REMARK  203  A    between atoms: _484  and  _485
REMARK  204  A    between atoms: _484  and  _487
REMARK  205  A    between atoms: _490  and  _492
REMARK  206  A    between atoms: _492  and  _493
REMARK  207  A    between atoms: _492  and  _495
REMARK  208  A    between atoms: _495  and  _496
REMARK  209  A    between atoms: _499  and  _501
REMARK  210  A    between atoms: _501  and  _502
REMARK  211  A    between atoms: _501  and  _504
REMARK  212  A    between atoms: _504  and  _505
REMARK  213  A    between atoms: _509  and  _510
REMARK  214  A    between atoms: _515  and  _517
REMARK  215  A    between atoms: _517  and  _518
REMARK  216  A    between atoms: _517  and  _520
REMARK  217  A    between atoms: _520  and  _521
REMARK  218  A    between atoms: _524  and  _526
REMARK  219  A    between atoms: _526  and  _527
REMARK  220  A    between atoms: _526  and  _529
REMARK  221  A    between atoms: _529  and  _530
REMARK  222  A    between atoms: _535  and  _537
REMARK  223  A    between atoms: _537  and  _538
REMARK  224  A    between atoms: _537  and  _540
REMARK  225  A    between atoms: _543  and  _545
REMARK  226  A    between atoms: _545  and  _546
REMARK  227  A    between atoms: _545  and  _548
REMARK  228  A    between atoms: _548  and  _549
REMARK  229  A    between atoms: _552  and  _554
REMARK  230  A    between atoms: _554  and  _555
REMARK  231  A    between atoms: _557  and  _559
REMARK  232  A    between atoms: _559  and  _560
REMARK  233  A    between atoms: _559  and  _562
REMARK  234  A    between atoms: _562  and  _563
REMARK  235  A    between atoms: _563  and  _564
REMARK  236  A    between atoms: _564  and  _565
REMARK  237  A    between atoms: _574  and  _576
REMARK  238  A    between atoms: _576  and  _577
REMARK  239  A    between atoms: _576  and  _579
REMARK  240  A    between atoms: _579  and  _580
REMARK                            x       y       z     vdW  Elec       q    Type
REMARK                         _______ _______ _______ _____ _____    ______ ____
ROOT
ATOM      1  O   HOH     1       8.627  33.503  12.617  0.00  0.00    +0.000 OA
ENDROOT
TORSDOF 0
REMARK  Name = ../refined-set-2016/2wl0/2wl0_pocket.pdb
REMARK  240 active torsions:
REMARK  status: ('A' for Active; 'I' for Inactive)
REMARK    1  A    between atoms: _1  and  _3
REMARK    2  A    between atoms: _3  and  _4
REMARK    3  A    between atoms: _3  and  _6
REMARK    4  A    between atoms: _6  and  _7
REMARK    5  A    between atoms: _7  and  _8
REMARK    6  A    between atoms: _8  and  _9
REMARK    7  A    between atoms: _18  and  _20
REMARK    8  A    between atoms: _20  and  _21
REMARK    9  A    between atoms: _20  and  _23
REMARK   10  A    between atoms: _23  and  _24
REMARK   11  A    between atoms: _27  and  _29
REMARK   12  A    between atoms: _29  and  _30
REMARK   13  A    between atoms: _29  and  _32
REMARK   14  A    between atoms: _32  and  _33
REMARK   15  A    between atoms: _36  and  _38
REMARK   16  A    between atoms: _38  and  _39
REMARK   17  A    between atoms: _38  and  _41
REMARK   18  A    between atoms: _41  and  _42
REMARK   19  A    between atoms: _45  and  _47
REMARK   20  A    between atoms: _47  and  _48
REMARK   21  A    between atoms: _47  and  _50
REMARK   22  A    between atoms: _50  and  _51
REMARK   23  A    between atoms: _54  and  _56
REMARK   24  A    between atoms: _56  and  _57
REMARK   25  A    between atoms: _59  and  _61
REMARK   26  A    between atoms: _61  and  _62
REMARK   27  A    between atoms: _65  and  _67
REMARK   28  A    between atoms: _67  and  _68
REMARK   29  A    between atoms: _67  and  _70
REMARK   30  A    between atoms: _70  and  _71
REMARK   31  A    between atoms: _74  and  _76
REMARK   32  A    between atoms: _76  and  _77
REMARK   33  A    between atoms: _76  and  _79
REMARK   34  A    between atoms: _79  and  _80
REMARK   35  A    between atoms: _83  and  _85
REMARK   36  A    between atoms: _85  and  _86
REMARK   37  A    between atoms: _85  and  _88
REMARK   38  A    between atoms: _88  and  _89
REMARK   39  A    between atoms: _92  and  _94
REMARK   40  A    between atoms: _94  and  _95
REMARK   41  A    between atoms: _94  and  _97
REMARK   42  A    between atoms: _100  and  _102
REMARK   43  A    between atoms: _102  and  _103
REMARK   44  A    between atoms: _102  and  _105
REMARK   45  A    between atoms: _105  and  _106
REMARK   46  A    between atoms: _109  and  _111
REMARK   47  A    between atoms: _111  and  _112
REMARK   48  A    between atoms: _111  and  _114
REMARK   49  A    between atoms: _114  and  _115
REMARK   50  A    between atoms: _115  and  _116
REMARK   51  A    between atoms: _116  and  _117
REMARK   52  A    between atoms: _117  and  _118
REMARK   53  A    between atoms: _122  and  _124
REMARK   54  A    between atoms: _124  and  _125
REMARK   55  A    between atoms: _124  and  _127
REMARK   56  A    between atoms: _127  and  _128
REMARK   57  A    between atoms: _128  and  _129
REMARK   58  A    between atoms: _131  and  _133
REMARK   59  A    between atoms: _133  and  _134
REMARK   60  A    between atoms: _133  and  _136
REMARK   61  A    between atoms: _136  and  _137
REMARK   62  A    between atoms: _140  and  _142
REMARK   63  A    between atoms: _142  and  _143
REMARK   64  A    between atoms: _145  and  _147
REMARK   65  A    between atoms: _147  and  _148
REMARK   66  A    between atoms: _150  and  _152
REMARK   67  A    between atoms: _152  and  _153
REMARK   68  A    between atoms: _152  and  _155
REMARK   69  A    between atoms: _155  and  _156
REMARK   70  A    between atoms: _159  and  _161
REMARK   71  A    between atoms: _161  and  _162
REMARK   72  A    between atoms: _164  and  _166
REMARK   73  A    between atoms: _166  and  _167
REMARK   74  A    between atoms: _169  and  _171
REMARK   75  A    between atoms: _171  and  _172
REMARK   76  A    between atoms: _171  and  _174
REMARK   77  A    between atoms: _174  and  _175
REMARK   78  A    between atoms: _181  and  _183
REMARK   79  A    between atoms: _183  and  _184
REMARK   80  A    between atoms: _183  and  _186
REMARK   81  A    between atoms: _186  and  _187
REMARK   82  A    between atoms: _190  and  _192
REMARK   83  A    between atoms: _192  and  _193
REMARK   84  A    between atoms: _192  and  _195
REMARK   85  A    between atoms: _198  and  _200
REMARK   86  A    between atoms: _200  and  _201
REMARK   87  A    between atoms: _200  and  _203
REMARK   88  A    between atoms: _203  and  _204
REMARK   89  A    between atoms: _207  and  _209
REMARK   90  A    between atoms: _209  and  _210
REMARK   91  A    between atoms: _209  and  _212
REMARK   92  A    between atoms: _212  and  _213
REMARK   93  A    between atoms: _217  and  _218
REMARK   94  A    between atoms: _223  and  _225
REMARK   95  A    between atoms: _225  and  _226
REMARK   96  A    between atoms: _225  and  _228
REMARK   97  A    between atoms: _228  and  _229
REMARK   98  A    between atoms: _232  and  _234
REMARK   99  A    between atoms: _234  and  _235
REMARK  100  A    between atoms: _234  and  _237
REMARK  101  A    between atoms: _237  and  _238
REMARK  102  A    between atoms: _243  and  _245
REMARK  103  A    between atoms: _245  and  _246
REMARK  104  A    between atoms: _245  and  _248
REMARK  105  A    between atoms: _251  and  _253
REMARK  106  A    between atoms: _253  and  _254
REMARK  107  A    between atoms: _253  and  _256
REMARK  108  A    between atoms: _256  and  _257
REMARK  109  A    between atoms: _260  and  _262
REMARK  110  A    between atoms: _262  and  _263
REMARK  111  A    between atoms: _265  and  _267
REMARK  112  A    between atoms: _267  and  _268
REMARK  113  A    between atoms: _267  and  _270
REMARK  114  A    between atoms: _270  and  _271
REMARK  115  A    between atoms: _271  and  _272
REMARK  116  A    between atoms: _272  and  _273
REMARK  117  A    between atoms: _282  and  _284
REMARK  118  A    between atoms: _284  and  _285
REMARK  119  A    between atoms: _284  and  _287
REMARK  120  A    between atoms: _287  and  _288
REMARK  121  A    between atoms: _293  and  _295
REMARK  122  A    between atoms: _295  and  _296
REMARK  123  A    between atoms: _295  and  _298
REMARK  124  A    between atoms: _298  and  _299
REMARK  125  A    between atoms: _299  and  _300
REMARK  126  A    between atoms: _300  and  _301
REMARK  127  A    between atoms: _310  and  _312
REMARK  128  A    between atoms: _312  and  _313
REMARK  129  A    between atoms: _312  and  _315
REMARK  130  A    between atoms: _315  and  _316
REMARK  131  A    between atoms: _319  and  _321
REMARK  132  A    between atoms: _321  and  _322
REMARK  133  A    between atoms: _321  and  _324
REMARK  134  A    between atoms: _324  and  _325
REMARK  135  A    between atoms: _328  and  _330
REMARK  136  A    between atoms: _330  and  _331
REMARK  137  A    between atoms: _330  and  _333
REMARK  138  A    between atoms: _333  and  _334
REMARK  139  A    between atoms: _337  and  _339
REMARK  140  A    between atoms: _339  and  _340
REMARK  141  A    between atoms: _339  and  _342
REMARK  142  A    between atoms: _342  and  _343
REMARK  143  A    between atoms: _346  and  _348
REMARK  144  A    between atoms: _348  and  _349
REMARK  145  A    between atoms: _348  and  _351
REMARK  146  A    between atoms: _351  and  _352
REMARK  147  A    between atoms: _355  and  _357
REMARK  148  A    between atoms: _357  and  _358
REMARK  149  A    between atoms: _360  and  _362
REMARK  150  A    between atoms: _362  and  _363
REMARK  151  A    between atoms: _366  and  _368
REMARK  152  A    between atoms: _368  and  _369
REMARK  153  A    between atoms: _368  and  _371
REMARK  154  A    between atoms: _371  and  _372
REMARK  155  A    between atoms: _375  and  _377
REMARK  156  A    between atoms: _377  and  _378
REMARK  157  A    between atoms: _377  and  _380
REMARK  158  A    between atoms: _380  and  _381
REMARK  159  A    between atoms: _384  and  _386
REMARK  160  A    between atoms: _386  and  _387
REMARK  161  A    between atoms: _386  and  _389
REMARK  162  A    between atoms: _389  and  _390
REMARK  163  A    between atoms: _393  and  _395
REMARK  164  A    between atoms: _395  and  _396
REMARK  165  A    between atoms: _395  and  _398
REMARK  166  A    between atoms: _401  and  _403
REMARK  167  A    between atoms: _403  and  _404
REMARK  168  A    between atoms: _403  and  _406
REMARK  169  A    between atoms: _406  and  _407
REMARK  170  A    between atoms: _407  and  _408
REMARK  171  A    between atoms: _408  and  _409
REMARK  172  A    between atoms: _409  and  _410
REMARK  173  A    between atoms: _414  and  _416
REMARK  174  A    between atoms: _416  and  _417
REMARK  175  A    between atoms: _416  and  _419
REMARK  176  A    between atoms: _419  and  _420
REMARK  177  A    between atoms: _420  and  _421
REMARK  178  A    between atoms: _423  and  _425
REMARK  179  A    between atoms: _425  and  _426
REMARK  180  A    between atoms: _425  and  _428
REMARK  181  A    between atoms: _428  and  _429
REMARK  182  A    between atoms: _432  and  _434
REMARK  183  A    between atoms: _434  and  _435
REMARK  184  A    between atoms: _437  and  _439
REMARK  185  A    between atoms: _439  and  _440
REMARK  186  A    between atoms: _442  and  _444
REMARK  187  A    between atoms: _444  and  _445
REMARK  188  A    between atoms: _444  and  _447
REMARK  189  A    between atoms: _447  and  _448
REMARK  190  A    between atoms: _451  and  _453
REMARK  191  A    between atoms: _453  and  _454
REMARK  192  A    between atoms: _456  and  _458
REMARK  193  A    between atoms: _458  and  _459
REMARK  194  A    between atoms: _461  and  _463
REMARK  195  A    between atoms: _463  and  _464
REMARK  196  A    between atoms: _463  and  _466
REMARK  197  A    between atoms: _466  and  _467
REMARK  198  A    between atoms: _473  and  _475
REMARK  199  A    between atoms: _475  and  _476
REMARK  200  A    between atoms: _475  and  _478
REMARK  201  A    between atoms: _478  and  _479
REMARK  202  A    between atoms: _482  and  _484
REMARK  203  A    between atoms: _484  and  _485
REMARK  204  A    between atoms: _484  and  _487
REMARK  205  A    between atoms: _490  and  _492
REMARK  206  A    between atoms: _492  and  _493
REMARK  207  A    between atoms: _492  and  _495
REMARK  208  A    between atoms: _495  and  _496
REMARK  209  A    between atoms: _499  and  _501
REMARK  210  A    between atoms: _501  and  _502
REMARK  211  A    between atoms: _501  and  _504
REMARK  212  A    between atoms: _504  and  _505
REMARK  213  A    between atoms: _509  and  _510
REMARK  214  A    between atoms: _515  and  _517
REMARK  215  A    between atoms: _517  and  _518
REMARK  216  A    between atoms: _517  and  _520
REMARK  217  A    between atoms: _520  and  _521
REMARK  218  A    between atoms: _524  and  _526
REMARK  219  A    between atoms: _526  and  _527
REMARK  220  A    between atoms: _526  and  _529
REMARK  221  A    between atoms: _529  and  _530
REMARK  222  A    between atoms: _535  and  _537
REMARK  223  A    between atoms: _537  and  _538
REMARK  224  A    between atoms: _537  and  _540
REMARK  225  A    between atoms: _543  and  _545
REMARK  226  A    between atoms: _545  and  _546
REMARK  227  A    between atoms: _545  and  _548
REMARK  228  A    between atoms: _548  and  _549
REMARK  229  A    between atoms: _552  and  _554
REMARK  230  A    between atoms: _554  and  _555
REMARK  231  A    between atoms: _557  and  _559
REMARK  232  A    between atoms: _559  and  _560
REMARK  233  A    between atoms: _559  and  _562
REMARK  234  A    between atoms: _562  and  _563
REMARK  235  A    between atoms: _563  and  _564
REMARK  236  A    between atoms: _564  and  _565
REMARK  237  A    between atoms: _574  and  _576
REMARK  238  A    between atoms: _576  and  _577
REMARK  239  A    between atoms: _576  and  _579
REMARK  240  A    between atoms: _579  and  _580
REMARK                            x       y       z     vdW  Elec       q    Type
REMARK                         _______ _______ _______ _____ _____    ______ ____
ROOT
ATOM      1  O   HOH     1      20.503  25.085  12.991  0.00  0.00    +0.000 OA
ENDROOT
TORSDOF 0
REMARK  Name = ../refined-set-2016/2wl0/2wl0_pocket.pdb
REMARK  240 active torsions:
REMARK  status: ('A' for Active; 'I' for Inactive)
REMARK    1  A    between atoms: _1  and  _3
REMARK    2  A    between atoms: _3  and  _4
REMARK    3  A    between atoms: _3  and  _6
REMARK    4  A    between atoms: _6  and  _7
REMARK    5  A    between atoms: _7  and  _8
REMARK    6  A    between atoms: _8  and  _9
REMARK    7  A    between atoms: _18  and  _20
REMARK    8  A    between atoms: _20  and  _21
REMARK    9  A    between atoms: _20  and  _23
REMARK   10  A    between atoms: _23  and  _24
REMARK   11  A    between atoms: _27  and  _29
REMARK   12  A    between atoms: _29  and  _30
REMARK   13  A    between atoms: _29  and  _32
REMARK   14  A    between atoms: _32  and  _33
REMARK   15  A    between atoms: _36  and  _38
REMARK   16  A    between atoms: _38  and  _39
REMARK   17  A    between atoms: _38  and  _41
REMARK   18  A    between atoms: _41  and  _42
REMARK   19  A    between atoms: _45  and  _47
REMARK   20  A    between atoms: _47  and  _48
REMARK   21  A    between atoms: _47  and  _50
REMARK   22  A    between atoms: _50  and  _51
REMARK   23  A    between atoms: _54  and  _56
REMARK   24  A    between atoms: _56  and  _57
REMARK   25  A    between atoms: _59  and  _61
REMARK   26  A    between atoms: _61  and  _62
REMARK   27  A    between atoms: _65  and  _67
REMARK   28  A    between atoms: _67  and  _68
REMARK   29  A    between atoms: _67  and  _70
REMARK   30  A    between atoms: _70  and  _71
REMARK   31  A    between atoms: _74  and  _76
REMARK   32  A    between atoms: _76  and  _77
REMARK   33  A    between atoms: _76  and  _79
REMARK   34  A    between atoms: _79  and  _80
REMARK   35  A    between atoms: _83  and  _85
REMARK   36  A    between atoms: _85  and  _86
REMARK   37  A    between atoms: _85  and  _88
REMARK   38  A    between atoms: _88  and  _89
REMARK   39  A    between atoms: _92  and  _94
REMARK   40  A    between atoms: _94  and  _95
REMARK   41  A    between atoms: _94  and  _97
REMARK   42  A    between atoms: _100  and  _102
REMARK   43  A    between atoms: _102  and  _103
REMARK   44  A    between atoms: _102  and  _105
REMARK   45  A    between atoms: _105  and  _106
REMARK   46  A    between atoms: _109  and  _111
REMARK   47  A    between atoms: _111  and  _112
REMARK   48  A    between atoms: _111  and  _114
REMARK   49  A    between atoms: _114  and  _115
REMARK   50  A    between atoms: _115  and  _116
REMARK   51  A    between atoms: _116  and  _117
REMARK   52  A    between atoms: _117  and  _118
REMARK   53  A    between atoms: _122  and  _124
REMARK   54  A    between atoms: _124  and  _125
REMARK   55  A    between atoms: _124  and  _127
REMARK   56  A    between atoms: _127  and  _128
REMARK   57  A    between atoms: _128  and  _129
REMARK   58  A    between atoms: _131  and  _133
REMARK   59  A    between atoms: _133  and  _134
REMARK   60  A    between atoms: _133  and  _136
REMARK   61  A    between atoms: _136  and  _137
REMARK   62  A    between atoms: _140  and  _142
REMARK   63  A    between atoms: _142  and  _143
REMARK   64  A    between atoms: _145  and  _147
REMARK   65  A    between atoms: _147  and  _148
REMARK   66  A    between atoms: _150  and  _152
REMARK   67  A    between atoms: _152  and  _153
REMARK   68  A    between atoms: _152  and  _155
REMARK   69  A    between atoms: _155  and  _156
REMARK   70  A    between atoms: _159  and  _161
REMARK   71  A    between atoms: _161  and  _162
REMARK   72  A    between atoms: _164  and  _166
REMARK   73  A    between atoms: _166  and  _167
REMARK   74  A    between atoms: _169  and  _171
REMARK   75  A    between atoms: _171  and  _172
REMARK   76  A    between atoms: _171  and  _174
REMARK   77  A    between atoms: _174  and  _175
REMARK   78  A    between atoms: _181  and  _183
REMARK   79  A    between atoms: _183  and  _184
REMARK   80  A    between atoms: _183  and  _186
REMARK   81  A    between atoms: _186  and  _187
REMARK   82  A    between atoms: _190  and  _192
REMARK   83  A    between atoms: _192  and  _193
REMARK   84  A    between atoms: _192  and  _195
REMARK   85  A    between atoms: _198  and  _200
REMARK   86  A    between atoms: _200  and  _201
REMARK   87  A    between atoms: _200  and  _203
REMARK   88  A    between atoms: _203  and  _204
REMARK   89  A    between atoms: _207  and  _209
REMARK   90  A    between atoms: _209  and  _210
REMARK   91  A    between atoms: _209  and  _212
REMARK   92  A    between atoms: _212  and  _213
REMARK   93  A    between atoms: _217  and  _218
REMARK   94  A    between atoms: _223  and  _225
REMARK   95  A    between atoms: _225  and  _226
REMARK   96  A    between atoms: _225  and  _228
REMARK   97  A    between atoms: _228  and  _229
REMARK   98  A    between atoms: _232  and  _234
REMARK   99  A    between atoms: _234  and  _235
REMARK  100  A    between atoms: _234  and  _237
REMARK  101  A    between atoms: _237  and  _238
REMARK  102  A    between atoms: _243  and  _245
REMARK  103  A    between atoms: _245  and  _246
REMARK  104  A    between atoms: _245  and  _248
REMARK  105  A    between atoms: _251  and  _253
REMARK  106  A    between atoms: _253  and  _254
REMARK  107  A    between atoms: _253  and  _256
REMARK  108  A    between atoms: _256  and  _257
REMARK  109  A    between atoms: _260  and  _262
REMARK  110  A    between atoms: _262  and  _263
REMARK  111  A    between atoms: _265  and  _267
REMARK  112  A    between atoms: _267  and  _268
REMARK  113  A    between atoms: _267  and  _270
REMARK  114  A    between atoms: _270  and  _271
REMARK  115  A    between atoms: _271  and  _272
REMARK  116  A    between atoms: _272  and  _273
REMARK  117  A    between atoms: _282  and  _284
REMARK  118  A    between atoms: _284  and  _285
REMARK  119  A    between atoms: _284  and  _287
REMARK  120  A    between atoms: _287  and  _288
REMARK  121  A    between atoms: _293  and  _295
REMARK  122  A    between atoms: _295  and  _296
REMARK  123  A    between atoms: _295  and  _298
REMARK  124  A    between atoms: _298  and  _299
REMARK  125  A    between atoms: _299  and  _300
REMARK  126  A    between atoms: _300  and  _301
REMARK  127  A    between atoms: _310  and  _312
REMARK  128  A    between atoms: _312  and  _313
REMARK  129  A    between atoms: _312  and  _315
REMARK  130  A    between atoms: _315  and  _316
REMARK  131  A    between atoms: _319  and  _321
REMARK  132  A    between atoms: _321  and  _322
REMARK  133  A    between atoms: _321  and  _324
REMARK  134  A    between atoms: _324  and  _325
REMARK  135  A    between atoms: _328  and  _330
REMARK  136  A    between atoms: _330  and  _331
REMARK  137  A    between atoms: _330  and  _333
REMARK  138  A    between atoms: _333  and  _334
REMARK  139  A    between atoms: _337  and  _339
REMARK  140  A    between atoms: _339  and  _340
REMARK  141  A    between atoms: _339  and  _342
REMARK  142  A    between atoms: _342  and  _343
REMARK  143  A    between atoms: _346  and  _348
REMARK  144  A    between atoms: _348  and  _349
REMARK  145  A    between atoms: _348  and  _351
REMARK  146  A    between atoms: _351  and  _352
REMARK  147  A    between atoms: _355  and  _357
REMARK  148  A    between atoms: _357  and  _358
REMARK  149  A    between atoms: _360  and  _362
REMARK  150  A    between atoms: _362  and  _363
REMARK  151  A    between atoms: _366  and  _368
REMARK  152  A    between atoms: _368  and  _369
REMARK  153  A    between atoms: _368  and  _371
REMARK  154  A    between atoms: _371  and  _372
REMARK  155  A    between atoms: _375  and  _377
REMARK  156  A    between atoms: _377  and  _378
REMARK  157  A    between atoms: _377  and  _380
REMARK  158  A    between atoms: _380  and  _381
REMARK  159  A    between atoms: _384  and  _386
REMARK  160  A    between atoms: _386  and  _387
REMARK  161  A    between atoms: _386  and  _389
REMARK  162  A    between atoms: _389  and  _390
REMARK  163  A    between atoms: _393  and  _395
REMARK  164  A    between atoms: _395  and  _396
REMARK  165  A    between atoms: _395  and  _398
REMARK  166  A    between atoms: _401  and  _403
REMARK  167  A    between atoms: _403  and  _404
REMARK  168  A    between atoms: _403  and  _406
REMARK  169  A    between atoms: _406  and  _407
REMARK  170  A    between atoms: _407  and  _408
REMARK  171  A    between atoms: _408  and  _409
REMARK  172  A    between atoms: _409  and  _410
REMARK  173  A    between atoms: _414  and  _416
REMARK  174  A    between atoms: _416  and  _417
REMARK  175  A    between atoms: _416  and  _419
REMARK  176  A    between atoms: _419  and  _420
REMARK  177  A    between atoms: _420  and  _421
REMARK  178  A    between atoms: _423  and  _425
REMARK  179  A    between atoms: _425  and  _426
REMARK  180  A    between atoms: _425  and  _428
REMARK  181  A    between atoms: _428  and  _429
REMARK  182  A    between atoms: _432  and  _434
REMARK  183  A    between atoms: _434  and  _435
REMARK  184  A    between atoms: _437  and  _439
REMARK  185  A    between atoms: _439  and  _440
REMARK  186  A    between atoms: _442  and  _444
REMARK  187  A    between atoms: _444  and  _445
REMARK  188  A    between atoms: _444  and  _447
REMARK  189  A    between atoms: _447  and  _448
REMARK  190  A    between atoms: _451  and  _453
REMARK  191  A    between atoms: _453  and  _454
REMARK  192  A    between atoms: _456  and  _458
REMARK  193  A    between atoms: _458  and  _459
REMARK  194  A    between atoms: _461  and  _463
REMARK  195  A    between atoms: _463  and  _464
REMARK  196  A    between atoms: _463  and  _466
REMARK  197  A    between atoms: _466  and  _467
REMARK  198  A    between atoms: _473  and  _475
REMARK  199  A    between atoms: _475  and  _476
REMARK  200  A    between atoms: _475  and  _478
REMARK  201  A    between atoms: _478  and  _479
REMARK  202  A    between atoms: _482  and  _484
REMARK  203  A    between atoms: _484  and  _485
REMARK  204  A    between atoms: _484  and  _487
REMARK  205  A    between atoms: _490  and  _492
REMARK  206  A    between atoms: _492  and  _493
REMARK  207  A    between atoms: _492  and  _495
REMARK  208  A    between atoms: _495  and  _496
REMARK  209  A    between atoms: _499  and  _501
REMARK  210  A    between atoms: _501  and  _502
REMARK  211  A    between atoms: _501  and  _504
REMARK  212  A    between atoms: _504  and  _505
REMARK  213  A    between atoms: _509  and  _510
REMARK  214  A    between atoms: _515  and  _517
REMARK  215  A    between atoms: _517  and  _518
REMARK  216  A    between atoms: _517  and  _520
REMARK  217  A    between atoms: _520  and  _521
REMARK  218  A    between atoms: _524  and  _526
REMARK  219  A    between atoms: _526  and  _527
REMARK  220  A    between atoms: _526  and  _529
REMARK  221  A    between atoms: _529  and  _530
REMARK  222  A    between atoms: _535  and  _537
REMARK  223  A    between atoms: _537  and  _538
REMARK  224  A    between atoms: _537  and  _540
REMARK  225  A    between atoms: _543  and  _545
REMARK  226  A    between atoms: _545  and  _546
REMARK  227  A    between atoms: _545  and  _548
REMARK  228  A    between atoms: _548  and  _549
REMARK  229  A    between atoms: _552  and  _554
REMARK  230  A    between atoms: _554  and  _555
REMARK  231  A    between atoms: _557  and  _559
REMARK  232  A    between atoms: _559  and  _560
REMARK  233  A    between atoms: _559  and  _562
REMARK  234  A    between atoms: _562  and  _563
REMARK  235  A    between atoms: _563  and  _564
REMARK  236  A    between atoms: _564  and  _565
REMARK  237  A    between atoms: _574  and  _576
REMARK  238  A    between atoms: _576  and  _577
REMARK  239  A    between atoms: _576  and  _579
REMARK  240  A    between atoms: _579  and  _580
REMARK                            x       y       z     vdW  Elec       q    Type
REMARK                         _______ _______ _______ _____ _____    ______ ____
ROOT
ATOM      1  O   HOH     1      10.782  30.654   1.660  0.00  0.00    +0.000 OA
ENDROOT
TORSDOF 0
REMARK  Name = ../refined-set-2016/2wl0/2wl0_pocket.pdb
REMARK  240 active torsions:
REMARK  status: ('A' for Active; 'I' for Inactive)
REMARK    1  A    between atoms: _1  and  _3
REMARK    2  A    between atoms: _3  and  _4
REMARK    3  A    between atoms: _3  and  _6
REMARK    4  A    between atoms: _6  and  _7
REMARK    5  A    between atoms: _7  and  _8
REMARK    6  A    between atoms: _8  and  _9
REMARK    7  A    between atoms: _18  and  _20
REMARK    8  A    between atoms: _20  and  _21
REMARK    9  A    between atoms: _20  and  _23
REMARK   10  A    between atoms: _23  and  _24
REMARK   11  A    between atoms: _27  and  _29
REMARK   12  A    between atoms: _29  and  _30
REMARK   13  A    between atoms: _29  and  _32
REMARK   14  A    between atoms: _32  and  _33
REMARK   15  A    between atoms: _36  and  _38
REMARK   16  A    between atoms: _38  and  _39
REMARK   17  A    between atoms: _38  and  _41
REMARK   18  A    between atoms: _41  and  _42
REMARK   19  A    between atoms: _45  and  _47
REMARK   20  A    between atoms: _47  and  _48
REMARK   21  A    between atoms: _47  and  _50
REMARK   22  A    between atoms: _50  and  _51
REMARK   23  A    between atoms: _54  and  _56
REMARK   24  A    between atoms: _56  and  _57
REMARK   25  A    between atoms: _59  and  _61
REMARK   26  A    between atoms: _61  and  _62
REMARK   27  A    between atoms: _65  and  _67
REMARK   28  A    between atoms: _67  and  _68
REMARK   29  A    between atoms: _67  and  _70
REMARK   30  A    between atoms: _70  and  _71
REMARK   31  A    between atoms: _74  and  _76
REMARK   32  A    between atoms: _76  and  _77
REMARK   33  A    between atoms: _76  and  _79
REMARK   34  A    between atoms: _79  and  _80
REMARK   35  A    between atoms: _83  and  _85
REMARK   36  A    between atoms: _85  and  _86
REMARK   37  A    between atoms: _85  and  _88
REMARK   38  A    between atoms: _88  and  _89
REMARK   39  A    between atoms: _92  and  _94
REMARK   40  A    between atoms: _94  and  _95
REMARK   41  A    between atoms: _94  and  _97
REMARK   42  A    between atoms: _100  and  _102
REMARK   43  A    between atoms: _102  and  _103
REMARK   44  A    between atoms: _102  and  _105
REMARK   45  A    between atoms: _105  and  _106
REMARK   46  A    between atoms: _109  and  _111
REMARK   47  A    between atoms: _111  and  _112
REMARK   48  A    between atoms: _111  and  _114
REMARK   49  A    between atoms: _114  and  _115
REMARK   50  A    between atoms: _115  and  _116
REMARK   51  A    between atoms: _116  and  _117
REMARK   52  A    between atoms: _117  and  _118
REMARK   53  A    between atoms: _122  and  _124
REMARK   54  A    between atoms: _124  and  _125
REMARK   55  A    between atoms: _124  and  _127
REMARK   56  A    between atoms: _127  and  _128
REMARK   57  A    between atoms: _128  and  _129
REMARK   58  A    between atoms: _131  and  _133
REMARK   59  A    between atoms: _133  and  _134
REMARK   60  A    between atoms: _133  and  _136
REMARK   61  A    between atoms: _136  and  _137
REMARK   62  A    between atoms: _140  and  _142
REMARK   63  A    between atoms: _142  and  _143
REMARK   64  A    between atoms: _145  and  _147
REMARK   65  A    between atoms: _147  and  _148
REMARK   66  A    between atoms: _150  and  _152
REMARK   67  A    between atoms: _152  and  _153
REMARK   68  A    between atoms: _152  and  _155
REMARK   69  A    between atoms: _155  and  _156
REMARK   70  A    between atoms: _159  and  _161
REMARK   71  A    between atoms: _161  and  _162
REMARK   72  A    between atoms: _164  and  _166
REMARK   73  A    between atoms: _166  and  _167
REMARK   74  A    between atoms: _169  and  _171
REMARK   75  A    between atoms: _171  and  _172
REMARK   76  A    between atoms: _171  and  _174
REMARK   77  A    between atoms: _174  and  _175
REMARK   78  A    between atoms: _181  and  _183
REMARK   79  A    between atoms: _183  and  _184
REMARK   80  A    between atoms: _183  and  _186
REMARK   81  A    between atoms: _186  and  _187
REMARK   82  A    between atoms: _190  and  _192
REMARK   83  A    between atoms: _192  and  _193
REMARK   84  A    between atoms: _192  and  _195
REMARK   85  A    between atoms: _198  and  _200
REMARK   86  A    between atoms: _200  and  _201
REMARK   87  A    between atoms: _200  and  _203
REMARK   88  A    between atoms: _203  and  _204
REMARK   89  A    between atoms: _207  and  _209
REMARK   90  A    between atoms: _209  and  _210
REMARK   91  A    between atoms: _209  and  _212
REMARK   92  A    between atoms: _212  and  _213
REMARK   93  A    between atoms: _217  and  _218
REMARK   94  A    between atoms: _223  and  _225
REMARK   95  A    between atoms: _225  and  _226
REMARK   96  A    between atoms: _225  and  _228
REMARK   97  A    between atoms: _228  and  _229
REMARK   98  A    between atoms: _232  and  _234
REMARK   99  A    between atoms: _234  and  _235
REMARK  100  A    between atoms: _234  and  _237
REMARK  101  A    between atoms: _237  and  _238
REMARK  102  A    between atoms: _243  and  _245
REMARK  103  A    between atoms: _245  and  _246
REMARK  104  A    between atoms: _245  and  _248
REMARK  105  A    between atoms: _251  and  _253
REMARK  106  A    between atoms: _253  and  _254
REMARK  107  A    between atoms: _253  and  _256
REMARK  108  A    between atoms: _256  and  _257
REMARK  109  A    between atoms: _260  and  _262
REMARK  110  A    between atoms: _262  and  _263
REMARK  111  A    between atoms: _265  and  _267
REMARK  112  A    between atoms: _267  and  _268
REMARK  113  A    between atoms: _267  and  _270
REMARK  114  A    between atoms: _270  and  _271
REMARK  115  A    between atoms: _271  and  _272
REMARK  116  A    between atoms: _272  and  _273
REMARK  117  A    between atoms: _282  and  _284
REMARK  118  A    between atoms: _284  and  _285
REMARK  119  A    between atoms: _284  and  _287
REMARK  120  A    between atoms: _287  and  _288
REMARK  121  A    between atoms: _293  and  _295
REMARK  122  A    between atoms: _295  and  _296
REMARK  123  A    between atoms: _295  and  _298
REMARK  124  A    between atoms: _298  and  _299
REMARK  125  A    between atoms: _299  and  _300
REMARK  126  A    between atoms: _300  and  _301
REMARK  127  A    between atoms: _310  and  _312
REMARK  128  A    between atoms: _312  and  _313
REMARK  129  A    between atoms: _312  and  _315
REMARK  130  A    between atoms: _315  and  _316
REMARK  131  A    between atoms: _319  and  _321
REMARK  132  A    between atoms: _321  and  _322
REMARK  133  A    between atoms: _321  and  _324
REMARK  134  A    between atoms: _324  and  _325
REMARK  135  A    between atoms: _328  and  _330
REMARK  136  A    between atoms: _330  and  _331
REMARK  137  A    between atoms: _330  and  _333
REMARK  138  A    between atoms: _333  and  _334
REMARK  139  A    between atoms: _337  and  _339
REMARK  140  A    between atoms: _339  and  _340
REMARK  141  A    between atoms: _339  and  _342
REMARK  142  A    between atoms: _342  and  _343
REMARK  143  A    between atoms: _346  and  _348
REMARK  144  A    between atoms: _348  and  _349
REMARK  145  A    between atoms: _348  and  _351
REMARK  146  A    between atoms: _351  and  _352
REMARK  147  A    between atoms: _355  and  _357
REMARK  148  A    between atoms: _357  and  _358
REMARK  149  A    between atoms: _360  and  _362
REMARK  150  A    between atoms: _362  and  _363
REMARK  151  A    between atoms: _366  and  _368
REMARK  152  A    between atoms: _368  and  _369
REMARK  153  A    between atoms: _368  and  _371
REMARK  154  A    between atoms: _371  and  _372
REMARK  155  A    between atoms: _375  and  _377
REMARK  156  A    between atoms: _377  and  _378
REMARK  157  A    between atoms: _377  and  _380
REMARK  158  A    between atoms: _380  and  _381
REMARK  159  A    between atoms: _384  and  _386
REMARK  160  A    between atoms: _386  and  _387
REMARK  161  A    between atoms: _386  and  _389
REMARK  162  A    between atoms: _389  and  _390
REMARK  163  A    between atoms: _393  and  _395
REMARK  164  A    between atoms: _395  and  _396
REMARK  165  A    between atoms: _395  and  _398
REMARK  166  A    between atoms: _401  and  _403
REMARK  167  A    between atoms: _403  and  _404
REMARK  168  A    between atoms: _403  and  _406
REMARK  169  A    between atoms: _406  and  _407
REMARK  170  A    between atoms: _407  and  _408
REMARK  171  A    between atoms: _408  and  _409
REMARK  172  A    between atoms: _409  and  _410
REMARK  173  A    between atoms: _414  and  _416
REMARK  174  A    between atoms: _416  and  _417
REMARK  175  A    between atoms: _416  and  _419
REMARK  176  A    between atoms: _419  and  _420
REMARK  177  A    between atoms: _420  and  _421
REMARK  178  A    between atoms: _423  and  _425
REMARK  179  A    between atoms: _425  and  _426
REMARK  180  A    between atoms: _425  and  _428
REMARK  181  A    between atoms: _428  and  _429
REMARK  182  A    between atoms: _432  and  _434
REMARK  183  A    between atoms: _434  and  _435
REMARK  184  A    between atoms: _437  and  _439
REMARK  185  A    between atoms: _439  and  _440
REMARK  186  A    between atoms: _442  and  _444
REMARK  187  A    between atoms: _444  and  _445
REMARK  188  A    between atoms: _444  and  _447
REMARK  189  A    between atoms: _447  and  _448
REMARK  190  A    between atoms: _451  and  _453
REMARK  191  A    between atoms: _453  and  _454
REMARK  192  A    between atoms: _456  and  _458
REMARK  193  A    between atoms: _458  and  _459
REMARK  194  A    between atoms: _461  and  _463
REMARK  195  A    between atoms: _463  and  _464
REMARK  196  A    between atoms: _463  and  _466
REMARK  197  A    between atoms: _466  and  _467
REMARK  198  A    between atoms: _473  and  _475
REMARK  199  A    between atoms: _475  and  _476
REMARK  200  A    between atoms: _475  and  _478
REMARK  201  A    between atoms: _478  and  _479
REMARK  202  A    between atoms: _482  and  _484
REMARK  203  A    between atoms: _484  and  _485
REMARK  204  A    between atoms: _484  and  _487
REMARK  205  A    between atoms: _490  and  _492
REMARK  206  A    between atoms: _492  and  _493
REMARK  207  A    between atoms: _492  and  _495
REMARK  208  A    between atoms: _495  and  _496
REMARK  209  A    between atoms: _499  and  _501
REMARK  210  A    between atoms: _501  and  _502
REMARK  211  A    between atoms: _501  and  _504
REMARK  212  A    between atoms: _504  and  _505
REMARK  213  A    between atoms: _509  and  _510
REMARK  214  A    between atoms: _515  and  _517
REMARK  215  A    between atoms: _517  and  _518
REMARK  216  A    between atoms: _517  and  _520
REMARK  217  A    between atoms: _520  and  _521
REMARK  218  A    between atoms: _524  and  _526
REMARK  219  A    between atoms: _526  and  _527
REMARK  220  A    between atoms: _526  and  _529
REMARK  221  A    between atoms: _529  and  _530
REMARK  222  A    between atoms: _535  and  _537
REMARK  223  A    between atoms: _537  and  _538
REMARK  224  A    between atoms: _537  and  _540
REMARK  225  A    between atoms: _543  and  _545
REMARK  226  A    between atoms: _545  and  _546
REMARK  227  A    between atoms: _545  and  _548
REMARK  228  A    between atoms: _548  and  _549
REMARK  229  A    between atoms: _552  and  _554
REMARK  230  A    between atoms: _554  and  _555
REMARK  231  A    between atoms: _557  and  _559
REMARK  232  A    between atoms: _559  and  _560
REMARK  233  A    between atoms: _559  and  _562
REMARK  234  A    between atoms: _562  and  _563
REMARK  235  A    between atoms: _563  and  _564
REMARK  236  A    between atoms: _564  and  _565
REMARK  237  A    between atoms: _574  and  _576
REMARK  238  A    between atoms: _576  and  _577
REMARK  239  A    between atoms: _576  and  _579
REMARK  240  A    between atoms: _579  and  _580
REMARK                            x       y       z     vdW  Elec       q    Type
REMARK                         _______ _______ _______ _____ _____    ______ ____
ROOT
ATOM      1  O   HOH     1      11.424  20.749   6.635  0.00  0.00    +0.000 OA
ENDROOT
TORSDOF 0
REMARK  Name = ../refined-set-2016/2wl0/2wl0_pocket.pdb
REMARK  240 active torsions:
REMARK  status: ('A' for Active; 'I' for Inactive)
REMARK    1  A    between atoms: _1  and  _3
REMARK    2  A    between atoms: _3  and  _4
REMARK    3  A    between atoms: _3  and  _6
REMARK    4  A    between atoms: _6  and  _7
REMARK    5  A    between atoms: _7  and  _8
REMARK    6  A    between atoms: _8  and  _9
REMARK    7  A    between atoms: _18  and  _20
REMARK    8  A    between atoms: _20  and  _21
REMARK    9  A    between atoms: _20  and  _23
REMARK   10  A    between atoms: _23  and  _24
REMARK   11  A    between atoms: _27  and  _29
REMARK   12  A    between atoms: _29  and  _30
REMARK   13  A    between atoms: _29  and  _32
REMARK   14  A    between atoms: _32  and  _33
REMARK   15  A    between atoms: _36  and  _38
REMARK   16  A    between atoms: _38  and  _39
REMARK   17  A    between atoms: _38  and  _41
REMARK   18  A    between atoms: _41  and  _42
REMARK   19  A    between atoms: _45  and  _47
REMARK   20  A    between atoms: _47  and  _48
REMARK   21  A    between atoms: _47  and  _50
REMARK   22  A    between atoms: _50  and  _51
REMARK   23  A    between atoms: _54  and  _56
REMARK   24  A    between atoms: _56  and  _57
REMARK   25  A    between atoms: _59  and  _61
REMARK   26  A    between atoms: _61  and  _62
REMARK   27  A    between atoms: _65  and  _67
REMARK   28  A    between atoms: _67  and  _68
REMARK   29  A    between atoms: _67  and  _70
REMARK   30  A    between atoms: _70  and  _71
REMARK   31  A    between atoms: _74  and  _76
REMARK   32  A    between atoms: _76  and  _77
REMARK   33  A    between atoms: _76  and  _79
REMARK   34  A    between atoms: _79  and  _80
REMARK   35  A    between atoms: _83  and  _85
REMARK   36  A    between atoms: _85  and  _86
REMARK   37  A    between atoms: _85  and  _88
REMARK   38  A    between atoms: _88  and  _89
REMARK   39  A    between atoms: _92  and  _94
REMARK   40  A    between atoms: _94  and  _95
REMARK   41  A    between atoms: _94  and  _97
REMARK   42  A    between atoms: _100  and  _102
REMARK   43  A    between atoms: _102  and  _103
REMARK   44  A    between atoms: _102  and  _105
REMARK   45  A    between atoms: _105  and  _106
REMARK   46  A    between atoms: _109  and  _111
REMARK   47  A    between atoms: _111  and  _112
REMARK   48  A    between atoms: _111  and  _114
REMARK   49  A    between atoms: _114  and  _115
REMARK   50  A    between atoms: _115  and  _116
REMARK   51  A    between atoms: _116  and  _117
REMARK   52  A    between atoms: _117  and  _118
REMARK   53  A    between atoms: _122  and  _124
REMARK   54  A    between atoms: _124  and  _125
REMARK   55  A    between atoms: _124  and  _127
REMARK   56  A    between atoms: _127  and  _128
REMARK   57  A    between atoms: _128  and  _129
REMARK   58  A    between atoms: _131  and  _133
REMARK   59  A    between atoms: _133  and  _134
REMARK   60  A    between atoms: _133  and  _136
REMARK   61  A    between atoms: _136  and  _137
REMARK   62  A    between atoms: _140  and  _142
REMARK   63  A    between atoms: _142  and  _143
REMARK   64  A    between atoms: _145  and  _147
REMARK   65  A    between atoms: _147  and  _148
REMARK   66  A    between atoms: _150  and  _152
REMARK   67  A    between atoms: _152  and  _153
REMARK   68  A    between atoms: _152  and  _155
REMARK   69  A    between atoms: _155  and  _156
REMARK   70  A    between atoms: _159  and  _161
REMARK   71  A    between atoms: _161  and  _162
REMARK   72  A    between atoms: _164  and  _166
REMARK   73  A    between atoms: _166  and  _167
REMARK   74  A    between atoms: _169  and  _171
REMARK   75  A    between atoms: _171  and  _172
REMARK   76  A    between atoms: _171  and  _174
REMARK   77  A    between atoms: _174  and  _175
REMARK   78  A    between atoms: _181  and  _183
REMARK   79  A    between atoms: _183  and  _184
REMARK   80  A    between atoms: _183  and  _186
REMARK   81  A    between atoms: _186  and  _187
REMARK   82  A    between atoms: _190  and  _192
REMARK   83  A    between atoms: _192  and  _193
REMARK   84  A    between atoms: _192  and  _195
REMARK   85  A    between atoms: _198  and  _200
REMARK   86  A    between atoms: _200  and  _201
REMARK   87  A    between atoms: _200  and  _203
REMARK   88  A    between atoms: _203  and  _204
REMARK   89  A    between atoms: _207  and  _209
REMARK   90  A    between atoms: _209  and  _210
REMARK   91  A    between atoms: _209  and  _212
REMARK   92  A    between atoms: _212  and  _213
REMARK   93  A    between atoms: _217  and  _218
REMARK   94  A    between atoms: _223  and  _225
REMARK   95  A    between atoms: _225  and  _226
REMARK   96  A    between atoms: _225  and  _228
REMARK   97  A    between atoms: _228  and  _229
REMARK   98  A    between atoms: _232  and  _234
REMARK   99  A    between atoms: _234  and  _235
REMARK  100  A    between atoms: _234  and  _237
REMARK  101  A    between atoms: _237  and  _238
REMARK  102  A    between atoms: _243  and  _245
REMARK  103  A    between atoms: _245  and  _246
REMARK  104  A    between atoms: _245  and  _248
REMARK  105  A    between atoms: _251  and  _253
REMARK  106  A    between atoms: _253  and  _254
REMARK  107  A    between atoms: _253  and  _256
REMARK  108  A    between atoms: _256  and  _257
REMARK  109  A    between atoms: _260  and  _262
REMARK  110  A    between atoms: _262  and  _263
REMARK  111  A    between atoms: _265  and  _267
REMARK  112  A    between atoms: _267  and  _268
REMARK  113  A    between atoms: _267  and  _270
REMARK  114  A    between atoms: _270  and  _271
REMARK  115  A    between atoms: _271  and  _272
REMARK  116  A    between atoms: _272  and  _273
REMARK  117  A    between atoms: _282  and  _284
REMARK  118  A    between atoms: _284  and  _285
REMARK  119  A    between atoms: _284  and  _287
REMARK  120  A    between atoms: _287  and  _288
REMARK  121  A    between atoms: _293  and  _295
REMARK  122  A    between atoms: _295  and  _296
REMARK  123  A    between atoms: _295  and  _298
REMARK  124  A    between atoms: _298  and  _299
REMARK  125  A    between atoms: _299  and  _300
REMARK  126  A    between atoms: _300  and  _301
REMARK  127  A    between atoms: _310  and  _312
REMARK  128  A    between atoms: _312  and  _313
REMARK  129  A    between atoms: _312  and  _315
REMARK  130  A    between atoms: _315  and  _316
REMARK  131  A    between atoms: _319  and  _321
REMARK  132  A    between atoms: _321  and  _322
REMARK  133  A    between atoms: _321  and  _324
REMARK  134  A    between atoms: _324  and  _325
REMARK  135  A    between atoms: _328  and  _330
REMARK  136  A    between atoms: _330  and  _331
REMARK  137  A    between atoms: _330  and  _333
REMARK  138  A    between atoms: _333  and  _334
REMARK  139  A    between atoms: _337  and  _339
REMARK  140  A    between atoms: _339  and  _340
REMARK  141  A    between atoms: _339  and  _342
REMARK  142  A    between atoms: _342  and  _343
REMARK  143  A    between atoms: _346  and  _348
REMARK  144  A    between atoms: _348  and  _349
REMARK  145  A    between atoms: _348  and  _351
REMARK  146  A    between atoms: _351  and  _352
REMARK  147  A    between atoms: _355  and  _357
REMARK  148  A    between atoms: _357  and  _358
REMARK  149  A    between atoms: _360  and  _362
REMARK  150  A    between atoms: _362  and  _363
REMARK  151  A    between atoms: _366  and  _368
REMARK  152  A    between atoms: _368  and  _369
REMARK  153  A    between atoms: _368  and  _371
REMARK  154  A    between atoms: _371  and  _372
REMARK  155  A    between atoms: _375  and  _377
REMARK  156  A    between atoms: _377  and  _378
REMARK  157  A    between atoms: _377  and  _380
REMARK  158  A    between atoms: _380  and  _381
REMARK  159  A    between atoms: _384  and  _386
REMARK  160  A    between atoms: _386  and  _387
REMARK  161  A    between atoms: _386  and  _389
REMARK  162  A    between atoms: _389  and  _390
REMARK  163  A    between atoms: _393  and  _395
REMARK  164  A    between atoms: _395  and  _396
REMARK  165  A    between atoms: _395  and  _398
REMARK  166  A    between atoms: _401  and  _403
REMARK  167  A    between atoms: _403  and  _404
REMARK  168  A    between atoms: _403  and  _406
REMARK  169  A    between atoms: _406  and  _407
REMARK  170  A    between atoms: _407  and  _408
REMARK  171  A    between atoms: _408  and  _409
REMARK  172  A    between atoms: _409  and  _410
REMARK  173  A    between atoms: _414  and  _416
REMARK  174  A    between atoms: _416  and  _417
REMARK  175  A    between atoms: _416  and  _419
REMARK  176  A    between atoms: _419  and  _420
REMARK  177  A    between atoms: _420  and  _421
REMARK  178  A    between atoms: _423  and  _425
REMARK  179  A    between atoms: _425  and  _426
REMARK  180  A    between atoms: _425  and  _428
REMARK  181  A    between atoms: _428  and  _429
REMARK  182  A    between atoms: _432  and  _434
REMARK  183  A    between atoms: _434  and  _435
REMARK  184  A    between atoms: _437  and  _439
REMARK  185  A    between atoms: _439  and  _440
REMARK  186  A    between atoms: _442  and  _444
REMARK  187  A    between atoms: _444  and  _445
REMARK  188  A    between atoms: _444  and  _447
REMARK  189  A    between atoms: _447  and  _448
REMARK  190  A    between atoms: _451  and  _453
REMARK  191  A    between atoms: _453  and  _454
REMARK  192  A    between atoms: _456  and  _458
REMARK  193  A    between atoms: _458  and  _459
REMARK  194  A    between atoms: _461  and  _463
REMARK  195  A    between atoms: _463  and  _464
REMARK  196  A    between atoms: _463  and  _466
REMARK  197  A    between atoms: _466  and  _467
REMARK  198  A    between atoms: _473  and  _475
REMARK  199  A    between atoms: _475  and  _476
REMARK  200  A    between atoms: _475  and  _478
REMARK  201  A    between atoms: _478  and  _479
REMARK  202  A    between atoms: _482  and  _484
REMARK  203  A    between atoms: _484  and  _485
REMARK  204  A    between atoms: _484  and  _487
REMARK  205  A    between atoms: _490  and  _492
REMARK  206  A    between atoms: _492  and  _493
REMARK  207  A    between atoms: _492  and  _495
REMARK  208  A    between atoms: _495  and  _496
REMARK  209  A    between atoms: _499  and  _501
REMARK  210  A    between atoms: _501  and  _502
REMARK  211  A    between atoms: _501  and  _504
REMARK  212  A    between atoms: _504  and  _505
REMARK  213  A    between atoms: _509  and  _510
REMARK  214  A    between atoms: _515  and  _517
REMARK  215  A    between atoms: _517  and  _518
REMARK  216  A    between atoms: _517  and  _520
REMARK  217  A    between atoms: _520  and  _521
REMARK  218  A    between atoms: _524  and  _526
REMARK  219  A    between atoms: _526  and  _527
REMARK  220  A    between atoms: _526  and  _529
REMARK  221  A    between atoms: _529  and  _530
REMARK  222  A    between atoms: _535  and  _537
REMARK  223  A    between atoms: _537  and  _538
REMARK  224  A    between atoms: _537  and  _540
REMARK  225  A    between atoms: _543  and  _545
REMARK  226  A    between atoms: _545  and  _546
REMARK  227  A    between atoms: _545  and  _548
REMARK  228  A    between atoms: _548  and  _549
REMARK  229  A    between atoms: _552  and  _554
REMARK  230  A    between atoms: _554  and  _555
REMARK  231  A    between atoms: _557  and  _559
REMARK  232  A    between atoms: _559  and  _560
REMARK  233  A    between atoms: _559  and  _562
REMARK  234  A    between atoms: _562  and  _563
REMARK  235  A    between atoms: _563  and  _564
REMARK  236  A    between atoms: _564  and  _565
REMARK  237  A    between atoms: _574  and  _576
REMARK  238  A    between atoms: _576  and  _577
REMARK  239  A    between atoms: _576  and  _579
REMARK  240  A    between atoms: _579  and  _580
REMARK                            x       y       z     vdW  Elec       q    Type
REMARK                         _______ _______ _______ _____ _____    ______ ____
ROOT
ATOM      1  O   HOH     1      18.000  15.971   8.378  0.00  0.00    +0.000 OA
ENDROOT
TORSDOF 0
REMARK  Name = ../refined-set-2016/2wl0/2wl0_pocket.pdb
REMARK  240 active torsions:
REMARK  status: ('A' for Active; 'I' for Inactive)
REMARK    1  A    between atoms: _1  and  _3
REMARK    2  A    between atoms: _3  and  _4
REMARK    3  A    between atoms: _3  and  _6
REMARK    4  A    between atoms: _6  and  _7
REMARK    5  A    between atoms: _7  and  _8
REMARK    6  A    between atoms: _8  and  _9
REMARK    7  A    between atoms: _18  and  _20
REMARK    8  A    between atoms: _20  and  _21
REMARK    9  A    between atoms: _20  and  _23
REMARK   10  A    between atoms: _23  and  _24
REMARK   11  A    between atoms: _27  and  _29
REMARK   12  A    between atoms: _29  and  _30
REMARK   13  A    between atoms: _29  and  _32
REMARK   14  A    between atoms: _32  and  _33
REMARK   15  A    between atoms: _36  and  _38
REMARK   16  A    between atoms: _38  and  _39
REMARK   17  A    between atoms: _38  and  _41
REMARK   18  A    between atoms: _41  and  _42
REMARK   19  A    between atoms: _45  and  _47
REMARK   20  A    between atoms: _47  and  _48
REMARK   21  A    between atoms: _47  and  _50
REMARK   22  A    between atoms: _50  and  _51
REMARK   23  A    between atoms: _54  and  _56
REMARK   24  A    between atoms: _56  and  _57
REMARK   25  A    between atoms: _59  and  _61
REMARK   26  A    between atoms: _61  and  _62
REMARK   27  A    between atoms: _65  and  _67
REMARK   28  A    between atoms: _67  and  _68
REMARK   29  A    between atoms: _67  and  _70
REMARK   30  A    between atoms: _70  and  _71
REMARK   31  A    between atoms: _74  and  _76
REMARK   32  A    between atoms: _76  and  _77
REMARK   33  A    between atoms: _76  and  _79
REMARK   34  A    between atoms: _79  and  _80
REMARK   35  A    between atoms: _83  and  _85
REMARK   36  A    between atoms: _85  and  _86
REMARK   37  A    between atoms: _85  and  _88
REMARK   38  A    between atoms: _88  and  _89
REMARK   39  A    between atoms: _92  and  _94
REMARK   40  A    between atoms: _94  and  _95
REMARK   41  A    between atoms: _94  and  _97
REMARK   42  A    between atoms: _100  and  _102
REMARK   43  A    between atoms: _102  and  _103
REMARK   44  A    between atoms: _102  and  _105
REMARK   45  A    between atoms: _105  and  _106
REMARK   46  A    between atoms: _109  and  _111
REMARK   47  A    between atoms: _111  and  _112
REMARK   48  A    between atoms: _111  and  _114
REMARK   49  A    between atoms: _114  and  _115
REMARK   50  A    between atoms: _115  and  _116
REMARK   51  A    between atoms: _116  and  _117
REMARK   52  A    between atoms: _117  and  _118
REMARK   53  A    between atoms: _122  and  _124
REMARK   54  A    between atoms: _124  and  _125
REMARK   55  A    between atoms: _124  and  _127
REMARK   56  A    between atoms: _127  and  _128
REMARK   57  A    between atoms: _128  and  _129
REMARK   58  A    between atoms: _131  and  _133
REMARK   59  A    between atoms: _133  and  _134
REMARK   60  A    between atoms: _133  and  _136
REMARK   61  A    between atoms: _136  and  _137
REMARK   62  A    between atoms: _140  and  _142
REMARK   63  A    between atoms: _142  and  _143
REMARK   64  A    between atoms: _145  and  _147
REMARK   65  A    between atoms: _147  and  _148
REMARK   66  A    between atoms: _150  and  _152
REMARK   67  A    between atoms: _152  and  _153
REMARK   68  A    between atoms: _152  and  _155
REMARK   69  A    between atoms: _155  and  _156
REMARK   70  A    between atoms: _159  and  _161
REMARK   71  A    between atoms: _161  and  _162
REMARK   72  A    between atoms: _164  and  _166
REMARK   73  A    between atoms: _166  and  _167
REMARK   74  A    between atoms: _169  and  _171
REMARK   75  A    between atoms: _171  and  _172
REMARK   76  A    between atoms: _171  and  _174
REMARK   77  A    between atoms: _174  and  _175
REMARK   78  A    between atoms: _181  and  _183
REMARK   79  A    between atoms: _183  and  _184
REMARK   80  A    between atoms: _183  and  _186
REMARK   81  A    between atoms: _186  and  _187
REMARK   82  A    between atoms: _190  and  _192
REMARK   83  A    between atoms: _192  and  _193
REMARK   84  A    between atoms: _192  and  _195
REMARK   85  A    between atoms: _198  and  _200
REMARK   86  A    between atoms: _200  and  _201
REMARK   87  A    between atoms: _200  and  _203
REMARK   88  A    between atoms: _203  and  _204
REMARK   89  A    between atoms: _207  and  _209
REMARK   90  A    between atoms: _209  and  _210
REMARK   91  A    between atoms: _209  and  _212
REMARK   92  A    between atoms: _212  and  _213
REMARK   93  A    between atoms: _217  and  _218
REMARK   94  A    between atoms: _223  and  _225
REMARK   95  A    between atoms: _225  and  _226
REMARK   96  A    between atoms: _225  and  _228
REMARK   97  A    between atoms: _228  and  _229
REMARK   98  A    between atoms: _232  and  _234
REMARK   99  A    between atoms: _234  and  _235
REMARK  100  A    between atoms: _234  and  _237
REMARK  101  A    between atoms: _237  and  _238
REMARK  102  A    between atoms: _243  and  _245
REMARK  103  A    between atoms: _245  and  _246
REMARK  104  A    between atoms: _245  and  _248
REMARK  105  A    between atoms: _251  and  _253
REMARK  106  A    between atoms: _253  and  _254
REMARK  107  A    between atoms: _253  and  _256
REMARK  108  A    between atoms: _256  and  _257
REMARK  109  A    between atoms: _260  and  _262
REMARK  110  A    between atoms: _262  and  _263
REMARK  111  A    between atoms: _265  and  _267
REMARK  112  A    between atoms: _267  and  _268
REMARK  113  A    between atoms: _267  and  _270
REMARK  114  A    between atoms: _270  and  _271
REMARK  115  A    between atoms: _271  and  _272
REMARK  116  A    between atoms: _272  and  _273
REMARK  117  A    between atoms: _282  and  _284
REMARK  118  A    between atoms: _284  and  _285
REMARK  119  A    between atoms: _284  and  _287
REMARK  120  A    between atoms: _287  and  _288
REMARK  121  A    between atoms: _293  and  _295
REMARK  122  A    between atoms: _295  and  _296
REMARK  123  A    between atoms: _295  and  _298
REMARK  124  A    between atoms: _298  and  _299
REMARK  125  A    between atoms: _299  and  _300
REMARK  126  A    between atoms: _300  and  _301
REMARK  127  A    between atoms: _310  and  _312
REMARK  128  A    between atoms: _312  and  _313
REMARK  129  A    between atoms: _312  and  _315
REMARK  130  A    between atoms: _315  and  _316
REMARK  131  A    between atoms: _319  and  _321
REMARK  132  A    between atoms: _321  and  _322
REMARK  133  A    between atoms: _321  and  _324
REMARK  134  A    between atoms: _324  and  _325
REMARK  135  A    between atoms: _328  and  _330
REMARK  136  A    between atoms: _330  and  _331
REMARK  137  A    between atoms: _330  and  _333
REMARK  138  A    between atoms: _333  and  _334
REMARK  139  A    between atoms: _337  and  _339
REMARK  140  A    between atoms: _339  and  _340
REMARK  141  A    between atoms: _339  and  _342
REMARK  142  A    between atoms: _342  and  _343
REMARK  143  A    between atoms: _346  and  _348
REMARK  144  A    between atoms: _348  and  _349
REMARK  145  A    between atoms: _348  and  _351
REMARK  146  A    between atoms: _351  and  _352
REMARK  147  A    between atoms: _355  and  _357
REMARK  148  A    between atoms: _357  and  _358
REMARK  149  A    between atoms: _360  and  _362
REMARK  150  A    between atoms: _362  and  _363
REMARK  151  A    between atoms: _366  and  _368
REMARK  152  A    between atoms: _368  and  _369
REMARK  153  A    between atoms: _368  and  _371
REMARK  154  A    between atoms: _371  and  _372
REMARK  155  A    between atoms: _375  and  _377
REMARK  156  A    between atoms: _377  and  _378
REMARK  157  A    between atoms: _377  and  _380
REMARK  158  A    between atoms: _380  and  _381
REMARK  159  A    between atoms: _384  and  _386
REMARK  160  A    between atoms: _386  and  _387
REMARK  161  A    between atoms: _386  and  _389
REMARK  162  A    between atoms: _389  and  _390
REMARK  163  A    between atoms: _393  and  _395
REMARK  164  A    between atoms: _395  and  _396
REMARK  165  A    between atoms: _395  and  _398
REMARK  166  A    between atoms: _401  and  _403
REMARK  167  A    between atoms: _403  and  _404
REMARK  168  A    between atoms: _403  and  _406
REMARK  169  A    between atoms: _406  and  _407
REMARK  170  A    between atoms: _407  and  _408
REMARK  171  A    between atoms: _408  and  _409
REMARK  172  A    between atoms: _409  and  _410
REMARK  173  A    between atoms: _414  and  _416
REMARK  174  A    between atoms: _416  and  _417
REMARK  175  A    between atoms: _416  and  _419
REMARK  176  A    between atoms: _419  and  _420
REMARK  177  A    between atoms: _420  and  _421
REMARK  178  A    between atoms: _423  and  _425
REMARK  179  A    between atoms: _425  and  _426
REMARK  180  A    between atoms: _425  and  _428
REMARK  181  A    between atoms: _428  and  _429
REMARK  182  A    between atoms: _432  and  _434
REMARK  183  A    between atoms: _434  and  _435
REMARK  184  A    between atoms: _437  and  _439
REMARK  185  A    between atoms: _439  and  _440
REMARK  186  A    between atoms: _442  and  _444
REMARK  187  A    between atoms: _444  and  _445
REMARK  188  A    between atoms: _444  and  _447
REMARK  189  A    between atoms: _447  and  _448
REMARK  190  A    between atoms: _451  and  _453
REMARK  191  A    between atoms: _453  and  _454
REMARK  192  A    between atoms: _456  and  _458
REMARK  193  A    between atoms: _458  and  _459
REMARK  194  A    between atoms: _461  and  _463
REMARK  195  A    between atoms: _463  and  _464
REMARK  196  A    between atoms: _463  and  _466
REMARK  197  A    between atoms: _466  and  _467
REMARK  198  A    between atoms: _473  and  _475
REMARK  199  A    between atoms: _475  and  _476
REMARK  200  A    between atoms: _475  and  _478
REMARK  201  A    between atoms: _478  and  _479
REMARK  202  A    between atoms: _482  and  _484
REMARK  203  A    between atoms: _484  and  _485
REMARK  204  A    between atoms: _484  and  _487
REMARK  205  A    between atoms: _490  and  _492
REMARK  206  A    between atoms: _492  and  _493
REMARK  207  A    between atoms: _492  and  _495
REMARK  208  A    between atoms: _495  and  _496
REMARK  209  A    between atoms: _499  and  _501
REMARK  210  A    between atoms: _501  and  _502
REMARK  211  A    between atoms: _501  and  _504
REMARK  212  A    between atoms: _504  and  _505
REMARK  213  A    between atoms: _509  and  _510
REMARK  214  A    between atoms: _515  and  _517
REMARK  215  A    between atoms: _517  and  _518
REMARK  216  A    between atoms: _517  and  _520
REMARK  217  A    between atoms: _520  and  _521
REMARK  218  A    between atoms: _524  and  _526
REMARK  219  A    between atoms: _526  and  _527
REMARK  220  A    between atoms: _526  and  _529
REMARK  221  A    between atoms: _529  and  _530
REMARK  222  A    between atoms: _535  and  _537
REMARK  223  A    between atoms: _537  and  _538
REMARK  224  A    between atoms: _537  and  _540
REMARK  225  A    between atoms: _543  and  _545
REMARK  226  A    between atoms: _545  and  _546
REMARK  227  A    between atoms: _545  and  _548
REMARK  228  A    between atoms: _548  and  _549
REMARK  229  A    between atoms: _552  and  _554
REMARK  230  A    between atoms: _554  and  _555
REMARK  231  A    between atoms: _557  and  _559
REMARK  232  A    between atoms: _559  and  _560
REMARK  233  A    between atoms: _559  and  _562
REMARK  234  A    between atoms: _562  and  _563
REMARK  235  A    between atoms: _563  and  _564
REMARK  236  A    between atoms: _564  and  _565
REMARK  237  A    between atoms: _574  and  _576
REMARK  238  A    between atoms: _576  and  _577
REMARK  239  A    between atoms: _576  and  _579
REMARK  240  A    between atoms: _579  and  _580
REMARK                            x       y       z     vdW  Elec       q    Type
REMARK                         _______ _______ _______ _____ _____    ______ ____
ROOT
ATOM      1  O   HOH     1       2.854  26.655   2.007  0.00  0.00    +0.000 OA
ENDROOT
TORSDOF 0
REMARK  Name = ../refined-set-2016/2wl0/2wl0_pocket.pdb
REMARK  240 active torsions:
REMARK  status: ('A' for Active; 'I' for Inactive)
REMARK    1  A    between atoms: _1  and  _3
REMARK    2  A    between atoms: _3  and  _4
REMARK    3  A    between atoms: _3  and  _6
REMARK    4  A    between atoms: _6  and  _7
REMARK    5  A    between atoms: _7  and  _8
REMARK    6  A    between atoms: _8  and  _9
REMARK    7  A    between atoms: _18  and  _20
REMARK    8  A    between atoms: _20  and  _21
REMARK    9  A    between atoms: _20  and  _23
REMARK   10  A    between atoms: _23  and  _24
REMARK   11  A    between atoms: _27  and  _29
REMARK   12  A    between atoms: _29  and  _30
REMARK   13  A    between atoms: _29  and  _32
REMARK   14  A    between atoms: _32  and  _33
REMARK   15  A    between atoms: _36  and  _38
REMARK   16  A    between atoms: _38  and  _39
REMARK   17  A    between atoms: _38  and  _41
REMARK   18  A    between atoms: _41  and  _42
REMARK   19  A    between atoms: _45  and  _47
REMARK   20  A    between atoms: _47  and  _48
REMARK   21  A    between atoms: _47  and  _50
REMARK   22  A    between atoms: _50  and  _51
REMARK   23  A    between atoms: _54  and  _56
REMARK   24  A    between atoms: _56  and  _57
REMARK   25  A    between atoms: _59  and  _61
REMARK   26  A    between atoms: _61  and  _62
REMARK   27  A    between atoms: _65  and  _67
REMARK   28  A    between atoms: _67  and  _68
REMARK   29  A    between atoms: _67  and  _70
REMARK   30  A    between atoms: _70  and  _71
REMARK   31  A    between atoms: _74  and  _76
REMARK   32  A    between atoms: _76  and  _77
REMARK   33  A    between atoms: _76  and  _79
REMARK   34  A    between atoms: _79  and  _80
REMARK   35  A    between atoms: _83  and  _85
REMARK   36  A    between atoms: _85  and  _86
REMARK   37  A    between atoms: _85  and  _88
REMARK   38  A    between atoms: _88  and  _89
REMARK   39  A    between atoms: _92  and  _94
REMARK   40  A    between atoms: _94  and  _95
REMARK   41  A    between atoms: _94  and  _97
REMARK   42  A    between atoms: _100  and  _102
REMARK   43  A    between atoms: _102  and  _103
REMARK   44  A    between atoms: _102  and  _105
REMARK   45  A    between atoms: _105  and  _106
REMARK   46  A    between atoms: _109  and  _111
REMARK   47  A    between atoms: _111  and  _112
REMARK   48  A    between atoms: _111  and  _114
REMARK   49  A    between atoms: _114  and  _115
REMARK   50  A    between atoms: _115  and  _116
REMARK   51  A    between atoms: _116  and  _117
REMARK   52  A    between atoms: _117  and  _118
REMARK   53  A    between atoms: _122  and  _124
REMARK   54  A    between atoms: _124  and  _125
REMARK   55  A    between atoms: _124  and  _127
REMARK   56  A    between atoms: _127  and  _128
REMARK   57  A    between atoms: _128  and  _129
REMARK   58  A    between atoms: _131  and  _133
REMARK   59  A    between atoms: _133  and  _134
REMARK   60  A    between atoms: _133  and  _136
REMARK   61  A    between atoms: _136  and  _137
REMARK   62  A    between atoms: _140  and  _142
REMARK   63  A    between atoms: _142  and  _143
REMARK   64  A    between atoms: _145  and  _147
REMARK   65  A    between atoms: _147  and  _148
REMARK   66  A    between atoms: _150  and  _152
REMARK   67  A    between atoms: _152  and  _153
REMARK   68  A    between atoms: _152  and  _155
REMARK   69  A    between atoms: _155  and  _156
REMARK   70  A    between atoms: _159  and  _161
REMARK   71  A    between atoms: _161  and  _162
REMARK   72  A    between atoms: _164  and  _166
REMARK   73  A    between atoms: _166  and  _167
REMARK   74  A    between atoms: _169  and  _171
REMARK   75  A    between atoms: _171  and  _172
REMARK   76  A    between atoms: _171  and  _174
REMARK   77  A    between atoms: _174  and  _175
REMARK   78  A    between atoms: _181  and  _183
REMARK   79  A    between atoms: _183  and  _184
REMARK   80  A    between atoms: _183  and  _186
REMARK   81  A    between atoms: _186  and  _187
REMARK   82  A    between atoms: _190  and  _192
REMARK   83  A    between atoms: _192  and  _193
REMARK   84  A    between atoms: _192  and  _195
REMARK   85  A    between atoms: _198  and  _200
REMARK   86  A    between atoms: _200  and  _201
REMARK   87  A    between atoms: _200  and  _203
REMARK   88  A    between atoms: _203  and  _204
REMARK   89  A    between atoms: _207  and  _209
REMARK   90  A    between atoms: _209  and  _210
REMARK   91  A    between atoms: _209  and  _212
REMARK   92  A    between atoms: _212  and  _213
REMARK   93  A    between atoms: _217  and  _218
REMARK   94  A    between atoms: _223  and  _225
REMARK   95  A    between atoms: _225  and  _226
REMARK   96  A    between atoms: _225  and  _228
REMARK   97  A    between atoms: _228  and  _229
REMARK   98  A    between atoms: _232  and  _234
REMARK   99  A    between atoms: _234  and  _235
REMARK  100  A    between atoms: _234  and  _237
REMARK  101  A    between atoms: _237  and  _238
REMARK  102  A    between atoms: _243  and  _245
REMARK  103  A    between atoms: _245  and  _246
REMARK  104  A    between atoms: _245  and  _248
REMARK  105  A    between atoms: _251  and  _253
REMARK  106  A    between atoms: _253  and  _254
REMARK  107  A    between atoms: _253  and  _256
REMARK  108  A    between atoms: _256  and  _257
REMARK  109  A    between atoms: _260  and  _262
REMARK  110  A    between atoms: _262  and  _263
REMARK  111  A    between atoms: _265  and  _267
REMARK  112  A    between atoms: _267  and  _268
REMARK  113  A    between atoms: _267  and  _270
REMARK  114  A    between atoms: _270  and  _271
REMARK  115  A    between atoms: _271  and  _272
REMARK  116  A    between atoms: _272  and  _273
REMARK  117  A    between atoms: _282  and  _284
REMARK  118  A    between atoms: _284  and  _285
REMARK  119  A    between atoms: _284  and  _287
REMARK  120  A    between atoms: _287  and  _288
REMARK  121  A    between atoms: _293  and  _295
REMARK  122  A    between atoms: _295  and  _296
REMARK  123  A    between atoms: _295  and  _298
REMARK  124  A    between atoms: _298  and  _299
REMARK  125  A    between atoms: _299  and  _300
REMARK  126  A    between atoms: _300  and  _301
REMARK  127  A    between atoms: _310  and  _312
REMARK  128  A    between atoms: _312  and  _313
REMARK  129  A    between atoms: _312  and  _315
REMARK  130  A    between atoms: _315  and  _316
REMARK  131  A    between atoms: _319  and  _321
REMARK  132  A    between atoms: _321  and  _322
REMARK  133  A    between atoms: _321  and  _324
REMARK  134  A    between atoms: _324  and  _325
REMARK  135  A    between atoms: _328  and  _330
REMARK  136  A    between atoms: _330  and  _331
REMARK  137  A    between atoms: _330  and  _333
REMARK  138  A    between atoms: _333  and  _334
REMARK  139  A    between atoms: _337  and  _339
REMARK  140  A    between atoms: _339  and  _340
REMARK  141  A    between atoms: _339  and  _342
REMARK  142  A    between atoms: _342  and  _343
REMARK  143  A    between atoms: _346  and  _348
REMARK  144  A    between atoms: _348  and  _349
REMARK  145  A    between atoms: _348  and  _351
REMARK  146  A    between atoms: _351  and  _352
REMARK  147  A    between atoms: _355  and  _357
REMARK  148  A    between atoms: _357  and  _358
REMARK  149  A    between atoms: _360  and  _362
REMARK  150  A    between atoms: _362  and  _363
REMARK  151  A    between atoms: _366  and  _368
REMARK  152  A    between atoms: _368  and  _369
REMARK  153  A    between atoms: _368  and  _371
REMARK  154  A    between atoms: _371  and  _372
REMARK  155  A    between atoms: _375  and  _377
REMARK  156  A    between atoms: _377  and  _378
REMARK  157  A    between atoms: _377  and  _380
REMARK  158  A    between atoms: _380  and  _381
REMARK  159  A    between atoms: _384  and  _386
REMARK  160  A    between atoms: _386  and  _387
REMARK  161  A    between atoms: _386  and  _389
REMARK  162  A    between atoms: _389  and  _390
REMARK  163  A    between atoms: _393  and  _395
REMARK  164  A    between atoms: _395  and  _396
REMARK  165  A    between atoms: _395  and  _398
REMARK  166  A    between atoms: _401  and  _403
REMARK  167  A    between atoms: _403  and  _404
REMARK  168  A    between atoms: _403  and  _406
REMARK  169  A    between atoms: _406  and  _407
REMARK  170  A    between atoms: _407  and  _408
REMARK  171  A    between atoms: _408  and  _409
REMARK  172  A    between atoms: _409  and  _410
REMARK  173  A    between atoms: _414  and  _416
REMARK  174  A    between atoms: _416  and  _417
REMARK  175  A    between atoms: _416  and  _419
REMARK  176  A    between atoms: _419  and  _420
REMARK  177  A    between atoms: _420  and  _421
REMARK  178  A    between atoms: _423  and  _425
REMARK  179  A    between atoms: _425  and  _426
REMARK  180  A    between atoms: _425  and  _428
REMARK  181  A    between atoms: _428  and  _429
REMARK  182  A    between atoms: _432  and  _434
REMARK  183  A    between atoms: _434  and  _435
REMARK  184  A    between atoms: _437  and  _439
REMARK  185  A    between atoms: _439  and  _440
REMARK  186  A    between atoms: _442  and  _444
REMARK  187  A    between atoms: _444  and  _445
REMARK  188  A    between atoms: _444  and  _447
REMARK  189  A    between atoms: _447  and  _448
REMARK  190  A    between atoms: _451  and  _453
REMARK  191  A    between atoms: _453  and  _454
REMARK  192  A    between atoms: _456  and  _458
REMARK  193  A    between atoms: _458  and  _459
REMARK  194  A    between atoms: _461  and  _463
REMARK  195  A    between atoms: _463  and  _464
REMARK  196  A    between atoms: _463  and  _466
REMARK  197  A    between atoms: _466  and  _467
REMARK  198  A    between atoms: _473  and  _475
REMARK  199  A    between atoms: _475  and  _476
REMARK  200  A    between atoms: _475  and  _478
REMARK  201  A    between atoms: _478  and  _479
REMARK  202  A    between atoms: _482  and  _484
REMARK  203  A    between atoms: _484  and  _485
REMARK  204  A    between atoms: _484  and  _487
REMARK  205  A    between atoms: _490  and  _492
REMARK  206  A    between atoms: _492  and  _493
REMARK  207  A    between atoms: _492  and  _495
REMARK  208  A    between atoms: _495  and  _496
REMARK  209  A    between atoms: _499  and  _501
REMARK  210  A    between atoms: _501  and  _502
REMARK  211  A    between atoms: _501  and  _504
REMARK  212  A    between atoms: _504  and  _505
REMARK  213  A    between atoms: _509  and  _510
REMARK  214  A    between atoms: _515  and  _517
REMARK  215  A    between atoms: _517  and  _518
REMARK  216  A    between atoms: _517  and  _520
REMARK  217  A    between atoms: _520  and  _521
REMARK  218  A    between atoms: _524  and  _526
REMARK  219  A    between atoms: _526  and  _527
REMARK  220  A    between atoms: _526  and  _529
REMARK  221  A    between atoms: _529  and  _530
REMARK  222  A    between atoms: _535  and  _537
REMARK  223  A    between atoms: _537  and  _538
REMARK  224  A    between atoms: _537  and  _540
REMARK  225  A    between atoms: _543  and  _545
REMARK  226  A    between atoms: _545  and  _546
REMARK  227  A    between atoms: _545  and  _548
REMARK  228  A    between atoms: _548  and  _549
REMARK  229  A    between atoms: _552  and  _554
REMARK  230  A    between atoms: _554  and  _555
REMARK  231  A    between atoms: _557  and  _559
REMARK  232  A    between atoms: _559  and  _560
REMARK  233  A    between atoms: _559  and  _562
REMARK  234  A    between atoms: _562  and  _563
REMARK  235  A    between atoms: _563  and  _564
REMARK  236  A    between atoms: _564  and  _565
REMARK  237  A    between atoms: _574  and  _576
REMARK  238  A    between atoms: _576  and  _577
REMARK  239  A    between atoms: _576  and  _579
REMARK  240  A    between atoms: _579  and  _580
REMARK                            x       y       z     vdW  Elec       q    Type
REMARK                         _______ _______ _______ _____ _____    ______ ____
ROOT
ATOM      1  O   HOH     1       4.932  26.855   4.086  0.00  0.00    +0.000 OA
ENDROOT
TORSDOF 0
REMARK  Name = ../refined-set-2016/2wl0/2wl0_pocket.pdb
REMARK  240 active torsions:
REMARK  status: ('A' for Active; 'I' for Inactive)
REMARK    1  A    between atoms: _1  and  _3
REMARK    2  A    between atoms: _3  and  _4
REMARK    3  A    between atoms: _3  and  _6
REMARK    4  A    between atoms: _6  and  _7
REMARK    5  A    between atoms: _7  and  _8
REMARK    6  A    between atoms: _8  and  _9
REMARK    7  A    between atoms: _18  and  _20
REMARK    8  A    between atoms: _20  and  _21
REMARK    9  A    between atoms: _20  and  _23
REMARK   10  A    between atoms: _23  and  _24
REMARK   11  A    between atoms: _27  and  _29
REMARK   12  A    between atoms: _29  and  _30
REMARK   13  A    between atoms: _29  and  _32
REMARK   14  A    between atoms: _32  and  _33
REMARK   15  A    between atoms: _36  and  _38
REMARK   16  A    between atoms: _38  and  _39
REMARK   17  A    between atoms: _38  and  _41
REMARK   18  A    between atoms: _41  and  _42
REMARK   19  A    between atoms: _45  and  _47
REMARK   20  A    between atoms: _47  and  _48
REMARK   21  A    between atoms: _47  and  _50
REMARK   22  A    between atoms: _50  and  _51
REMARK   23  A    between atoms: _54  and  _56
REMARK   24  A    between atoms: _56  and  _57
REMARK   25  A    between atoms: _59  and  _61
REMARK   26  A    between atoms: _61  and  _62
REMARK   27  A    between atoms: _65  and  _67
REMARK   28  A    between atoms: _67  and  _68
REMARK   29  A    between atoms: _67  and  _70
REMARK   30  A    between atoms: _70  and  _71
REMARK   31  A    between atoms: _74  and  _76
REMARK   32  A    between atoms: _76  and  _77
REMARK   33  A    between atoms: _76  and  _79
REMARK   34  A    between atoms: _79  and  _80
REMARK   35  A    between atoms: _83  and  _85
REMARK   36  A    between atoms: _85  and  _86
REMARK   37  A    between atoms: _85  and  _88
REMARK   38  A    between atoms: _88  and  _89
REMARK   39  A    between atoms: _92  and  _94
REMARK   40  A    between atoms: _94  and  _95
REMARK   41  A    between atoms: _94  and  _97
REMARK   42  A    between atoms: _100  and  _102
REMARK   43  A    between atoms: _102  and  _103
REMARK   44  A    between atoms: _102  and  _105
REMARK   45  A    between atoms: _105  and  _106
REMARK   46  A    between atoms: _109  and  _111
REMARK   47  A    between atoms: _111  and  _112
REMARK   48  A    between atoms: _111  and  _114
REMARK   49  A    between atoms: _114  and  _115
REMARK   50  A    between atoms: _115  and  _116
REMARK   51  A    between atoms: _116  and  _117
REMARK   52  A    between atoms: _117  and  _118
REMARK   53  A    between atoms: _122  and  _124
REMARK   54  A    between atoms: _124  and  _125
REMARK   55  A    between atoms: _124  and  _127
REMARK   56  A    between atoms: _127  and  _128
REMARK   57  A    between atoms: _128  and  _129
REMARK   58  A    between atoms: _131  and  _133
REMARK   59  A    between atoms: _133  and  _134
REMARK   60  A    between atoms: _133  and  _136
REMARK   61  A    between atoms: _136  and  _137
REMARK   62  A    between atoms: _140  and  _142
REMARK   63  A    between atoms: _142  and  _143
REMARK   64  A    between atoms: _145  and  _147
REMARK   65  A    between atoms: _147  and  _148
REMARK   66  A    between atoms: _150  and  _152
REMARK   67  A    between atoms: _152  and  _153
REMARK   68  A    between atoms: _152  and  _155
REMARK   69  A    between atoms: _155  and  _156
REMARK   70  A    between atoms: _159  and  _161
REMARK   71  A    between atoms: _161  and  _162
REMARK   72  A    between atoms: _164  and  _166
REMARK   73  A    between atoms: _166  and  _167
REMARK   74  A    between atoms: _169  and  _171
REMARK   75  A    between atoms: _171  and  _172
REMARK   76  A    between atoms: _171  and  _174
REMARK   77  A    between atoms: _174  and  _175
REMARK   78  A    between atoms: _181  and  _183
REMARK   79  A    between atoms: _183  and  _184
REMARK   80  A    between atoms: _183  and  _186
REMARK   81  A    between atoms: _186  and  _187
REMARK   82  A    between atoms: _190  and  _192
REMARK   83  A    between atoms: _192  and  _193
REMARK   84  A    between atoms: _192  and  _195
REMARK   85  A    between atoms: _198  and  _200
REMARK   86  A    between atoms: _200  and  _201
REMARK   87  A    between atoms: _200  and  _203
REMARK   88  A    between atoms: _203  and  _204
REMARK   89  A    between atoms: _207  and  _209
REMARK   90  A    between atoms: _209  and  _210
REMARK   91  A    between atoms: _209  and  _212
REMARK   92  A    between atoms: _212  and  _213
REMARK   93  A    between atoms: _217  and  _218
REMARK   94  A    between atoms: _223  and  _225
REMARK   95  A    between atoms: _225  and  _226
REMARK   96  A    between atoms: _225  and  _228
REMARK   97  A    between atoms: _228  and  _229
REMARK   98  A    between atoms: _232  and  _234
REMARK   99  A    between atoms: _234  and  _235
REMARK  100  A    between atoms: _234  and  _237
REMARK  101  A    between atoms: _237  and  _238
REMARK  102  A    between atoms: _243  and  _245
REMARK  103  A    between atoms: _245  and  _246
REMARK  104  A    between atoms: _245  and  _248
REMARK  105  A    between atoms: _251  and  _253
REMARK  106  A    between atoms: _253  and  _254
REMARK  107  A    between atoms: _253  and  _256
REMARK  108  A    between atoms: _256  and  _257
REMARK  109  A    between atoms: _260  and  _262
REMARK  110  A    between atoms: _262  and  _263
REMARK  111  A    between atoms: _265  and  _267
REMARK  112  A    between atoms: _267  and  _268
REMARK  113  A    between atoms: _267  and  _270
REMARK  114  A    between atoms: _270  and  _271
REMARK  115  A    between atoms: _271  and  _272
REMARK  116  A    between atoms: _272  and  _273
REMARK  117  A    between atoms: _282  and  _284
REMARK  118  A    between atoms: _284  and  _285
REMARK  119  A    between atoms: _284  and  _287
REMARK  120  A    between atoms: _287  and  _288
REMARK  121  A    between atoms: _293  and  _295
REMARK  122  A    between atoms: _295  and  _296
REMARK  123  A    between atoms: _295  and  _298
REMARK  124  A    between atoms: _298  and  _299
REMARK  125  A    between atoms: _299  and  _300
REMARK  126  A    between atoms: _300  and  _301
REMARK  127  A    between atoms: _310  and  _312
REMARK  128  A    between atoms: _312  and  _313
REMARK  129  A    between atoms: _312  and  _315
REMARK  130  A    between atoms: _315  and  _316
REMARK  131  A    between atoms: _319  and  _321
REMARK  132  A    between atoms: _321  and  _322
REMARK  133  A    between atoms: _321  and  _324
REMARK  134  A    between atoms: _324  and  _325
REMARK  135  A    between atoms: _328  and  _330
REMARK  136  A    between atoms: _330  and  _331
REMARK  137  A    between atoms: _330  and  _333
REMARK  138  A    between atoms: _333  and  _334
REMARK  139  A    between atoms: _337  and  _339
REMARK  140  A    between atoms: _339  and  _340
REMARK  141  A    between atoms: _339  and  _342
REMARK  142  A    between atoms: _342  and  _343
REMARK  143  A    between atoms: _346  and  _348
REMARK  144  A    between atoms: _348  and  _349
REMARK  145  A    between atoms: _348  and  _351
REMARK  146  A    between atoms: _351  and  _352
REMARK  147  A    between atoms: _355  and  _357
REMARK  148  A    between atoms: _357  and  _358
REMARK  149  A    between atoms: _360  and  _362
REMARK  150  A    between atoms: _362  and  _363
REMARK  151  A    between atoms: _366  and  _368
REMARK  152  A    between atoms: _368  and  _369
REMARK  153  A    between atoms: _368  and  _371
REMARK  154  A    between atoms: _371  and  _372
REMARK  155  A    between atoms: _375  and  _377
REMARK  156  A    between atoms: _377  and  _378
REMARK  157  A    between atoms: _377  and  _380
REMARK  158  A    between atoms: _380  and  _381
REMARK  159  A    between atoms: _384  and  _386
REMARK  160  A    between atoms: _386  and  _387
REMARK  161  A    between atoms: _386  and  _389
REMARK  162  A    between atoms: _389  and  _390
REMARK  163  A    between atoms: _393  and  _395
REMARK  164  A    between atoms: _395  and  _396
REMARK  165  A    between atoms: _395  and  _398
REMARK  166  A    between atoms: _401  and  _403
REMARK  167  A    between atoms: _403  and  _404
REMARK  168  A    between atoms: _403  and  _406
REMARK  169  A    between atoms: _406  and  _407
REMARK  170  A    between atoms: _407  and  _408
REMARK  171  A    between atoms: _408  and  _409
REMARK  172  A    between atoms: _409  and  _410
REMARK  173  A    between atoms: _414  and  _416
REMARK  174  A    between atoms: _416  and  _417
REMARK  175  A    between atoms: _416  and  _419
REMARK  176  A    between atoms: _419  and  _420
REMARK  177  A    between atoms: _420  and  _421
REMARK  178  A    between atoms: _423  and  _425
REMARK  179  A    between atoms: _425  and  _426
REMARK  180  A    between atoms: _425  and  _428
REMARK  181  A    between atoms: _428  and  _429
REMARK  182  A    between atoms: _432  and  _434
REMARK  183  A    between atoms: _434  and  _435
REMARK  184  A    between atoms: _437  and  _439
REMARK  185  A    between atoms: _439  and  _440
REMARK  186  A    between atoms: _442  and  _444
REMARK  187  A    between atoms: _444  and  _445
REMARK  188  A    between atoms: _444  and  _447
REMARK  189  A    between atoms: _447  and  _448
REMARK  190  A    between atoms: _451  and  _453
REMARK  191  A    between atoms: _453  and  _454
REMARK  192  A    between atoms: _456  and  _458
REMARK  193  A    between atoms: _458  and  _459
REMARK  194  A    between atoms: _461  and  _463
REMARK  195  A    between atoms: _463  and  _464
REMARK  196  A    between atoms: _463  and  _466
REMARK  197  A    between atoms: _466  and  _467
REMARK  198  A    between atoms: _473  and  _475
REMARK  199  A    between atoms: _475  and  _476
REMARK  200  A    between atoms: _475  and  _478
REMARK  201  A    between atoms: _478  and  _479
REMARK  202  A    between atoms: _482  and  _484
REMARK  203  A    between atoms: _484  and  _485
REMARK  204  A    between atoms: _484  and  _487
REMARK  205  A    between atoms: _490  and  _492
REMARK  206  A    between atoms: _492  and  _493
REMARK  207  A    between atoms: _492  and  _495
REMARK  208  A    between atoms: _495  and  _496
REMARK  209  A    between atoms: _499  and  _501
REMARK  210  A    between atoms: _501  and  _502
REMARK  211  A    between atoms: _501  and  _504
REMARK  212  A    between atoms: _504  and  _505
REMARK  213  A    between atoms: _509  and  _510
REMARK  214  A    between atoms: _515  and  _517
REMARK  215  A    between atoms: _517  and  _518
REMARK  216  A    between atoms: _517  and  _520
REMARK  217  A    between atoms: _520  and  _521
REMARK  218  A    between atoms: _524  and  _526
REMARK  219  A    between atoms: _526  and  _527
REMARK  220  A    between atoms: _526  and  _529
REMARK  221  A    between atoms: _529  and  _530
REMARK  222  A    between atoms: _535  and  _537
REMARK  223  A    between atoms: _537  and  _538
REMARK  224  A    between atoms: _537  and  _540
REMARK  225  A    between atoms: _543  and  _545
REMARK  226  A    between atoms: _545  and  _546
REMARK  227  A    between atoms: _545  and  _548
REMARK  228  A    between atoms: _548  and  _549
REMARK  229  A    between atoms: _552  and  _554
REMARK  230  A    between atoms: _554  and  _555
REMARK  231  A    between atoms: _557  and  _559
REMARK  232  A    between atoms: _559  and  _560
REMARK  233  A    between atoms: _559  and  _562
REMARK  234  A    between atoms: _562  and  _563
REMARK  235  A    between atoms: _563  and  _564
REMARK  236  A    between atoms: _564  and  _565
REMARK  237  A    between atoms: _574  and  _576
REMARK  238  A    between atoms: _576  and  _577
REMARK  239  A    between atoms: _576  and  _579
REMARK  240  A    between atoms: _579  and  _580
REMARK                            x       y       z     vdW  Elec       q    Type
REMARK                         _______ _______ _______ _____ _____    ______ ____
ROOT
ATOM      1  O   HOH     1      21.824  23.974   4.809  0.00  0.00    +0.000 OA
ENDROOT
TORSDOF 0
REMARK  Name = ../refined-set-2016/2wl0/2wl0_pocket.pdb
REMARK  240 active torsions:
REMARK  status: ('A' for Active; 'I' for Inactive)
REMARK    1  A    between atoms: _1  and  _3
REMARK    2  A    between atoms: _3  and  _4
REMARK    3  A    between atoms: _3  and  _6
REMARK    4  A    between atoms: _6  and  _7
REMARK    5  A    between atoms: _7  and  _8
REMARK    6  A    between atoms: _8  and  _9
REMARK    7  A    between atoms: _18  and  _20
REMARK    8  A    between atoms: _20  and  _21
REMARK    9  A    between atoms: _20  and  _23
REMARK   10  A    between atoms: _23  and  _24
REMARK   11  A    between atoms: _27  and  _29
REMARK   12  A    between atoms: _29  and  _30
REMARK   13  A    between atoms: _29  and  _32
REMARK   14  A    between atoms: _32  and  _33
REMARK   15  A    between atoms: _36  and  _38
REMARK   16  A    between atoms: _38  and  _39
REMARK   17  A    between atoms: _38  and  _41
REMARK   18  A    between atoms: _41  and  _42
REMARK   19  A    between atoms: _45  and  _47
REMARK   20  A    between atoms: _47  and  _48
REMARK   21  A    between atoms: _47  and  _50
REMARK   22  A    between atoms: _50  and  _51
REMARK   23  A    between atoms: _54  and  _56
REMARK   24  A    between atoms: _56  and  _57
REMARK   25  A    between atoms: _59  and  _61
REMARK   26  A    between atoms: _61  and  _62
REMARK   27  A    between atoms: _65  and  _67
REMARK   28  A    between atoms: _67  and  _68
REMARK   29  A    between atoms: _67  and  _70
REMARK   30  A    between atoms: _70  and  _71
REMARK   31  A    between atoms: _74  and  _76
REMARK   32  A    between atoms: _76  and  _77
REMARK   33  A    between atoms: _76  and  _79
REMARK   34  A    between atoms: _79  and  _80
REMARK   35  A    between atoms: _83  and  _85
REMARK   36  A    between atoms: _85  and  _86
REMARK   37  A    between atoms: _85  and  _88
REMARK   38  A    between atoms: _88  and  _89
REMARK   39  A    between atoms: _92  and  _94
REMARK   40  A    between atoms: _94  and  _95
REMARK   41  A    between atoms: _94  and  _97
REMARK   42  A    between atoms: _100  and  _102
REMARK   43  A    between atoms: _102  and  _103
REMARK   44  A    between atoms: _102  and  _105
REMARK   45  A    between atoms: _105  and  _106
REMARK   46  A    between atoms: _109  and  _111
REMARK   47  A    between atoms: _111  and  _112
REMARK   48  A    between atoms: _111  and  _114
REMARK   49  A    between atoms: _114  and  _115
REMARK   50  A    between atoms: _115  and  _116
REMARK   51  A    between atoms: _116  and  _117
REMARK   52  A    between atoms: _117  and  _118
REMARK   53  A    between atoms: _122  and  _124
REMARK   54  A    between atoms: _124  and  _125
REMARK   55  A    between atoms: _124  and  _127
REMARK   56  A    between atoms: _127  and  _128
REMARK   57  A    between atoms: _128  and  _129
REMARK   58  A    between atoms: _131  and  _133
REMARK   59  A    between atoms: _133  and  _134
REMARK   60  A    between atoms: _133  and  _136
REMARK   61  A    between atoms: _136  and  _137
REMARK   62  A    between atoms: _140  and  _142
REMARK   63  A    between atoms: _142  and  _143
REMARK   64  A    between atoms: _145  and  _147
REMARK   65  A    between atoms: _147  and  _148
REMARK   66  A    between atoms: _150  and  _152
REMARK   67  A    between atoms: _152  and  _153
REMARK   68  A    between atoms: _152  and  _155
REMARK   69  A    between atoms: _155  and  _156
REMARK   70  A    between atoms: _159  and  _161
REMARK   71  A    between atoms: _161  and  _162
REMARK   72  A    between atoms: _164  and  _166
REMARK   73  A    between atoms: _166  and  _167
REMARK   74  A    between atoms: _169  and  _171
REMARK   75  A    between atoms: _171  and  _172
REMARK   76  A    between atoms: _171  and  _174
REMARK   77  A    between atoms: _174  and  _175
REMARK   78  A    between atoms: _181  and  _183
REMARK   79  A    between atoms: _183  and  _184
REMARK   80  A    between atoms: _183  and  _186
REMARK   81  A    between atoms: _186  and  _187
REMARK   82  A    between atoms: _190  and  _192
REMARK   83  A    between atoms: _192  and  _193
REMARK   84  A    between atoms: _192  and  _195
REMARK   85  A    between atoms: _198  and  _200
REMARK   86  A    between atoms: _200  and  _201
REMARK   87  A    between atoms: _200  and  _203
REMARK   88  A    between atoms: _203  and  _204
REMARK   89  A    between atoms: _207  and  _209
REMARK   90  A    between atoms: _209  and  _210
REMARK   91  A    between atoms: _209  and  _212
REMARK   92  A    between atoms: _212  and  _213
REMARK   93  A    between atoms: _217  and  _218
REMARK   94  A    between atoms: _223  and  _225
REMARK   95  A    between atoms: _225  and  _226
REMARK   96  A    between atoms: _225  and  _228
REMARK   97  A    between atoms: _228  and  _229
REMARK   98  A    between atoms: _232  and  _234
REMARK   99  A    between atoms: _234  and  _235
REMARK  100  A    between atoms: _234  and  _237
REMARK  101  A    between atoms: _237  and  _238
REMARK  102  A    between atoms: _243  and  _245
REMARK  103  A    between atoms: _245  and  _246
REMARK  104  A    between atoms: _245  and  _248
REMARK  105  A    between atoms: _251  and  _253
REMARK  106  A    between atoms: _253  and  _254
REMARK  107  A    between atoms: _253  and  _256
REMARK  108  A    between atoms: _256  and  _257
REMARK  109  A    between atoms: _260  and  _262
REMARK  110  A    between atoms: _262  and  _263
REMARK  111  A    between atoms: _265  and  _267
REMARK  112  A    between atoms: _267  and  _268
REMARK  113  A    between atoms: _267  and  _270
REMARK  114  A    between atoms: _270  and  _271
REMARK  115  A    between atoms: _271  and  _272
REMARK  116  A    between atoms: _272  and  _273
REMARK  117  A    between atoms: _282  and  _284
REMARK  118  A    between atoms: _284  and  _285
REMARK  119  A    between atoms: _284  and  _287
REMARK  120  A    between atoms: _287  and  _288
REMARK  121  A    between atoms: _293  and  _295
REMARK  122  A    between atoms: _295  and  _296
REMARK  123  A    between atoms: _295  and  _298
REMARK  124  A    between atoms: _298  and  _299
REMARK  125  A    between atoms: _299  and  _300
REMARK  126  A    between atoms: _300  and  _301
REMARK  127  A    between atoms: _310  and  _312
REMARK  128  A    between atoms: _312  and  _313
REMARK  129  A    between atoms: _312  and  _315
REMARK  130  A    between atoms: _315  and  _316
REMARK  131  A    between atoms: _319  and  _321
REMARK  132  A    between atoms: _321  and  _322
REMARK  133  A    between atoms: _321  and  _324
REMARK  134  A    between atoms: _324  and  _325
REMARK  135  A    between atoms: _328  and  _330
REMARK  136  A    between atoms: _330  and  _331
REMARK  137  A    between atoms: _330  and  _333
REMARK  138  A    between atoms: _333  and  _334
REMARK  139  A    between atoms: _337  and  _339
REMARK  140  A    between atoms: _339  and  _340
REMARK  141  A    between atoms: _339  and  _342
REMARK  142  A    between atoms: _342  and  _343
REMARK  143  A    between atoms: _346  and  _348
REMARK  144  A    between atoms: _348  and  _349
REMARK  145  A    between atoms: _348  and  _351
REMARK  146  A    between atoms: _351  and  _352
REMARK  147  A    between atoms: _355  and  _357
REMARK  148  A    between atoms: _357  and  _358
REMARK  149  A    between atoms: _360  and  _362
REMARK  150  A    between atoms: _362  and  _363
REMARK  151  A    between atoms: _366  and  _368
REMARK  152  A    between atoms: _368  and  _369
REMARK  153  A    between atoms: _368  and  _371
REMARK  154  A    between atoms: _371  and  _372
REMARK  155  A    between atoms: _375  and  _377
REMARK  156  A    between atoms: _377  and  _378
REMARK  157  A    between atoms: _377  and  _380
REMARK  158  A    between atoms: _380  and  _381
REMARK  159  A    between atoms: _384  and  _386
REMARK  160  A    between atoms: _386  and  _387
REMARK  161  A    between atoms: _386  and  _389
REMARK  162  A    between atoms: _389  and  _390
REMARK  163  A    between atoms: _393  and  _395
REMARK  164  A    between atoms: _395  and  _396
REMARK  165  A    between atoms: _395  and  _398
REMARK  166  A    between atoms: _401  and  _403
REMARK  167  A    between atoms: _403  and  _404
REMARK  168  A    between atoms: _403  and  _406
REMARK  169  A    between atoms: _406  and  _407
REMARK  170  A    between atoms: _407  and  _408
REMARK  171  A    between atoms: _408  and  _409
REMARK  172  A    between atoms: _409  and  _410
REMARK  173  A    between atoms: _414  and  _416
REMARK  174  A    between atoms: _416  and  _417
REMARK  175  A    between atoms: _416  and  _419
REMARK  176  A    between atoms: _419  and  _420
REMARK  177  A    between atoms: _420  and  _421
REMARK  178  A    between atoms: _423  and  _425
REMARK  179  A    between atoms: _425  and  _426
REMARK  180  A    between atoms: _425  and  _428
REMARK  181  A    between atoms: _428  and  _429
REMARK  182  A    between atoms: _432  and  _434
REMARK  183  A    between atoms: _434  and  _435
REMARK  184  A    between atoms: _437  and  _439
REMARK  185  A    between atoms: _439  and  _440
REMARK  186  A    between atoms: _442  and  _444
REMARK  187  A    between atoms: _444  and  _445
REMARK  188  A    between atoms: _444  and  _447
REMARK  189  A    between atoms: _447  and  _448
REMARK  190  A    between atoms: _451  and  _453
REMARK  191  A    between atoms: _453  and  _454
REMARK  192  A    between atoms: _456  and  _458
REMARK  193  A    between atoms: _458  and  _459
REMARK  194  A    between atoms: _461  and  _463
REMARK  195  A    between atoms: _463  and  _464
REMARK  196  A    between atoms: _463  and  _466
REMARK  197  A    between atoms: _466  and  _467
REMARK  198  A    between atoms: _473  and  _475
REMARK  199  A    between atoms: _475  and  _476
REMARK  200  A    between atoms: _475  and  _478
REMARK  201  A    between atoms: _478  and  _479
REMARK  202  A    between atoms: _482  and  _484
REMARK  203  A    between atoms: _484  and  _485
REMARK  204  A    between atoms: _484  and  _487
REMARK  205  A    between atoms: _490  and  _492
REMARK  206  A    between atoms: _492  and  _493
REMARK  207  A    between atoms: _492  and  _495
REMARK  208  A    between atoms: _495  and  _496
REMARK  209  A    between atoms: _499  and  _501
REMARK  210  A    between atoms: _501  and  _502
REMARK  211  A    between atoms: _501  and  _504
REMARK  212  A    between atoms: _504  and  _505
REMARK  213  A    between atoms: _509  and  _510
REMARK  214  A    between atoms: _515  and  _517
REMARK  215  A    between atoms: _517  and  _518
REMARK  216  A    between atoms: _517  and  _520
REMARK  217  A    between atoms: _520  and  _521
REMARK  218  A    between atoms: _524  and  _526
REMARK  219  A    between atoms: _526  and  _527
REMARK  220  A    between atoms: _526  and  _529
REMARK  221  A    between atoms: _529  and  _530
REMARK  222  A    between atoms: _535  and  _537
REMARK  223  A    between atoms: _537  and  _538
REMARK  224  A    between atoms: _537  and  _540
REMARK  225  A    between atoms: _543  and  _545
REMARK  226  A    between atoms: _545  and  _546
REMARK  227  A    between atoms: _545  and  _548
REMARK  228  A    between atoms: _548  and  _549
REMARK  229  A    between atoms: _552  and  _554
REMARK  230  A    between atoms: _554  and  _555
REMARK  231  A    between atoms: _557  and  _559
REMARK  232  A    between atoms: _559  and  _560
REMARK  233  A    between atoms: _559  and  _562
REMARK  234  A    between atoms: _562  and  _563
REMARK  235  A    between atoms: _563  and  _564
REMARK  236  A    between atoms: _564  and  _565
REMARK  237  A    between atoms: _574  and  _576
REMARK  238  A    between atoms: _576  and  _577
REMARK  239  A    between atoms: _576  and  _579
REMARK  240  A    between atoms: _579  and  _580
REMARK                            x       y       z     vdW  Elec       q    Type
REMARK                         _______ _______ _______ _____ _____    ______ ____
ROOT
ATOM      1  O   HOH     1      20.575  21.798   6.384  0.00  0.00    +0.000 OA
ENDROOT
TORSDOF 0
REMARK  Name = ../refined-set-2016/2wl0/2wl0_pocket.pdb
REMARK  240 active torsions:
REMARK  status: ('A' for Active; 'I' for Inactive)
REMARK    1  A    between atoms: _1  and  _3
REMARK    2  A    between atoms: _3  and  _4
REMARK    3  A    between atoms: _3  and  _6
REMARK    4  A    between atoms: _6  and  _7
REMARK    5  A    between atoms: _7  and  _8
REMARK    6  A    between atoms: _8  and  _9
REMARK    7  A    between atoms: _18  and  _20
REMARK    8  A    between atoms: _20  and  _21
REMARK    9  A    between atoms: _20  and  _23
REMARK   10  A    between atoms: _23  and  _24
REMARK   11  A    between atoms: _27  and  _29
REMARK   12  A    between atoms: _29  and  _30
REMARK   13  A    between atoms: _29  and  _32
REMARK   14  A    between atoms: _32  and  _33
REMARK   15  A    between atoms: _36  and  _38
REMARK   16  A    between atoms: _38  and  _39
REMARK   17  A    between atoms: _38  and  _41
REMARK   18  A    between atoms: _41  and  _42
REMARK   19  A    between atoms: _45  and  _47
REMARK   20  A    between atoms: _47  and  _48
REMARK   21  A    between atoms: _47  and  _50
REMARK   22  A    between atoms: _50  and  _51
REMARK   23  A    between atoms: _54  and  _56
REMARK   24  A    between atoms: _56  and  _57
REMARK   25  A    between atoms: _59  and  _61
REMARK   26  A    between atoms: _61  and  _62
REMARK   27  A    between atoms: _65  and  _67
REMARK   28  A    between atoms: _67  and  _68
REMARK   29  A    between atoms: _67  and  _70
REMARK   30  A    between atoms: _70  and  _71
REMARK   31  A    between atoms: _74  and  _76
REMARK   32  A    between atoms: _76  and  _77
REMARK   33  A    between atoms: _76  and  _79
REMARK   34  A    between atoms: _79  and  _80
REMARK   35  A    between atoms: _83  and  _85
REMARK   36  A    between atoms: _85  and  _86
REMARK   37  A    between atoms: _85  and  _88
REMARK   38  A    between atoms: _88  and  _89
REMARK   39  A    between atoms: _92  and  _94
REMARK   40  A    between atoms: _94  and  _95
REMARK   41  A    between atoms: _94  and  _97
REMARK   42  A    between atoms: _100  and  _102
REMARK   43  A    between atoms: _102  and  _103
REMARK   44  A    between atoms: _102  and  _105
REMARK   45  A    between atoms: _105  and  _106
REMARK   46  A    between atoms: _109  and  _111
REMARK   47  A    between atoms: _111  and  _112
REMARK   48  A    between atoms: _111  and  _114
REMARK   49  A    between atoms: _114  and  _115
REMARK   50  A    between atoms: _115  and  _116
REMARK   51  A    between atoms: _116  and  _117
REMARK   52  A    between atoms: _117  and  _118
REMARK   53  A    between atoms: _122  and  _124
REMARK   54  A    between atoms: _124  and  _125
REMARK   55  A    between atoms: _124  and  _127
REMARK   56  A    between atoms: _127  and  _128
REMARK   57  A    between atoms: _128  and  _129
REMARK   58  A    between atoms: _131  and  _133
REMARK   59  A    between atoms: _133  and  _134
REMARK   60  A    between atoms: _133  and  _136
REMARK   61  A    between atoms: _136  and  _137
REMARK   62  A    between atoms: _140  and  _142
REMARK   63  A    between atoms: _142  and  _143
REMARK   64  A    between atoms: _145  and  _147
REMARK   65  A    between atoms: _147  and  _148
REMARK   66  A    between atoms: _150  and  _152
REMARK   67  A    between atoms: _152  and  _153
REMARK   68  A    between atoms: _152  and  _155
REMARK   69  A    between atoms: _155  and  _156
REMARK   70  A    between atoms: _159  and  _161
REMARK   71  A    between atoms: _161  and  _162
REMARK   72  A    between atoms: _164  and  _166
REMARK   73  A    between atoms: _166  and  _167
REMARK   74  A    between atoms: _169  and  _171
REMARK   75  A    between atoms: _171  and  _172
REMARK   76  A    between atoms: _171  and  _174
REMARK   77  A    between atoms: _174  and  _175
REMARK   78  A    between atoms: _181  and  _183
REMARK   79  A    between atoms: _183  and  _184
REMARK   80  A    between atoms: _183  and  _186
REMARK   81  A    between atoms: _186  and  _187
REMARK   82  A    between atoms: _190  and  _192
REMARK   83  A    between atoms: _192  and  _193
REMARK   84  A    between atoms: _192  and  _195
REMARK   85  A    between atoms: _198  and  _200
REMARK   86  A    between atoms: _200  and  _201
REMARK   87  A    between atoms: _200  and  _203
REMARK   88  A    between atoms: _203  and  _204
REMARK   89  A    between atoms: _207  and  _209
REMARK   90  A    between atoms: _209  and  _210
REMARK   91  A    between atoms: _209  and  _212
REMARK   92  A    between atoms: _212  and  _213
REMARK   93  A    between atoms: _217  and  _218
REMARK   94  A    between atoms: _223  and  _225
REMARK   95  A    between atoms: _225  and  _226
REMARK   96  A    between atoms: _225  and  _228
REMARK   97  A    between atoms: _228  and  _229
REMARK   98  A    between atoms: _232  and  _234
REMARK   99  A    between atoms: _234  and  _235
REMARK  100  A    between atoms: _234  and  _237
REMARK  101  A    between atoms: _237  and  _238
REMARK  102  A    between atoms: _243  and  _245
REMARK  103  A    between atoms: _245  and  _246
REMARK  104  A    between atoms: _245  and  _248
REMARK  105  A    between atoms: _251  and  _253
REMARK  106  A    between atoms: _253  and  _254
REMARK  107  A    between atoms: _253  and  _256
REMARK  108  A    between atoms: _256  and  _257
REMARK  109  A    between atoms: _260  and  _262
REMARK  110  A    between atoms: _262  and  _263
REMARK  111  A    between atoms: _265  and  _267
REMARK  112  A    between atoms: _267  and  _268
REMARK  113  A    between atoms: _267  and  _270
REMARK  114  A    between atoms: _270  and  _271
REMARK  115  A    between atoms: _271  and  _272
REMARK  116  A    between atoms: _272  and  _273
REMARK  117  A    between atoms: _282  and  _284
REMARK  118  A    between atoms: _284  and  _285
REMARK  119  A    between atoms: _284  and  _287
REMARK  120  A    between atoms: _287  and  _288
REMARK  121  A    between atoms: _293  and  _295
REMARK  122  A    between atoms: _295  and  _296
REMARK  123  A    between atoms: _295  and  _298
REMARK  124  A    between atoms: _298  and  _299
REMARK  125  A    between atoms: _299  and  _300
REMARK  126  A    between atoms: _300  and  _301
REMARK  127  A    between atoms: _310  and  _312
REMARK  128  A    between atoms: _312  and  _313
REMARK  129  A    between atoms: _312  and  _315
REMARK  130  A    between atoms: _315  and  _316
REMARK  131  A    between atoms: _319  and  _321
REMARK  132  A    between atoms: _321  and  _322
REMARK  133  A    between atoms: _321  and  _324
REMARK  134  A    between atoms: _324  and  _325
REMARK  135  A    between atoms: _328  and  _330
REMARK  136  A    between atoms: _330  and  _331
REMARK  137  A    between atoms: _330  and  _333
REMARK  138  A    between atoms: _333  and  _334
REMARK  139  A    between atoms: _337  and  _339
REMARK  140  A    between atoms: _339  and  _340
REMARK  141  A    between atoms: _339  and  _342
REMARK  142  A    between atoms: _342  and  _343
REMARK  143  A    between atoms: _346  and  _348
REMARK  144  A    between atoms: _348  and  _349
REMARK  145  A    between atoms: _348  and  _351
REMARK  146  A    between atoms: _351  and  _352
REMARK  147  A    between atoms: _355  and  _357
REMARK  148  A    between atoms: _357  and  _358
REMARK  149  A    between atoms: _360  and  _362
REMARK  150  A    between atoms: _362  and  _363
REMARK  151  A    between atoms: _366  and  _368
REMARK  152  A    between atoms: _368  and  _369
REMARK  153  A    between atoms: _368  and  _371
REMARK  154  A    between atoms: _371  and  _372
REMARK  155  A    between atoms: _375  and  _377
REMARK  156  A    between atoms: _377  and  _378
REMARK  157  A    between atoms: _377  and  _380
REMARK  158  A    between atoms: _380  and  _381
REMARK  159  A    between atoms: _384  and  _386
REMARK  160  A    between atoms: _386  and  _387
REMARK  161  A    between atoms: _386  and  _389
REMARK  162  A    between atoms: _389  and  _390
REMARK  163  A    between atoms: _393  and  _395
REMARK  164  A    between atoms: _395  and  _396
REMARK  165  A    between atoms: _395  and  _398
REMARK  166  A    between atoms: _401  and  _403
REMARK  167  A    between atoms: _403  and  _404
REMARK  168  A    between atoms: _403  and  _406
REMARK  169  A    between atoms: _406  and  _407
REMARK  170  A    between atoms: _407  and  _408
REMARK  171  A    between atoms: _408  and  _409
REMARK  172  A    between atoms: _409  and  _410
REMARK  173  A    between atoms: _414  and  _416
REMARK  174  A    between atoms: _416  and  _417
REMARK  175  A    between atoms: _416  and  _419
REMARK  176  A    between atoms: _419  and  _420
REMARK  177  A    between atoms: _420  and  _421
REMARK  178  A    between atoms: _423  and  _425
REMARK  179  A    between atoms: _425  and  _426
REMARK  180  A    between atoms: _425  and  _428
REMARK  181  A    between atoms: _428  and  _429
REMARK  182  A    between atoms: _432  and  _434
REMARK  183  A    between atoms: _434  and  _435
REMARK  184  A    between atoms: _437  and  _439
REMARK  185  A    between atoms: _439  and  _440
REMARK  186  A    between atoms: _442  and  _444
REMARK  187  A    between atoms: _444  and  _445
REMARK  188  A    between atoms: _444  and  _447
REMARK  189  A    between atoms: _447  and  _448
REMARK  190  A    between atoms: _451  and  _453
REMARK  191  A    between atoms: _453  and  _454
REMARK  192  A    between atoms: _456  and  _458
REMARK  193  A    between atoms: _458  and  _459
REMARK  194  A    between atoms: _461  and  _463
REMARK  195  A    between atoms: _463  and  _464
REMARK  196  A    between atoms: _463  and  _466
REMARK  197  A    between atoms: _466  and  _467
REMARK  198  A    between atoms: _473  and  _475
REMARK  199  A    between atoms: _475  and  _476
REMARK  200  A    between atoms: _475  and  _478
REMARK  201  A    between atoms: _478  and  _479
REMARK  202  A    between atoms: _482  and  _484
REMARK  203  A    between atoms: _484  and  _485
REMARK  204  A    between atoms: _484  and  _487
REMARK  205  A    between atoms: _490  and  _492
REMARK  206  A    between atoms: _492  and  _493
REMARK  207  A    between atoms: _492  and  _495
REMARK  208  A    between atoms: _495  and  _496
REMARK  209  A    between atoms: _499  and  _501
REMARK  210  A    between atoms: _501  and  _502
REMARK  211  A    between atoms: _501  and  _504
REMARK  212  A    between atoms: _504  and  _505
REMARK  213  A    between atoms: _509  and  _510
REMARK  214  A    between atoms: _515  and  _517
REMARK  215  A    between atoms: _517  and  _518
REMARK  216  A    between atoms: _517  and  _520
REMARK  217  A    between atoms: _520  and  _521
REMARK  218  A    between atoms: _524  and  _526
REMARK  219  A    between atoms: _526  and  _527
REMARK  220  A    between atoms: _526  and  _529
REMARK  221  A    between atoms: _529  and  _530
REMARK  222  A    between atoms: _535  and  _537
REMARK  223  A    between atoms: _537  and  _538
REMARK  224  A    between atoms: _537  and  _540
REMARK  225  A    between atoms: _543  and  _545
REMARK  226  A    between atoms: _545  and  _546
REMARK  227  A    between atoms: _545  and  _548
REMARK  228  A    between atoms: _548  and  _549
REMARK  229  A    between atoms: _552  and  _554
REMARK  230  A    between atoms: _554  and  _555
REMARK  231  A    between atoms: _557  and  _559
REMARK  232  A    between atoms: _559  and  _560
REMARK  233  A    between atoms: _559  and  _562
REMARK  234  A    between atoms: _562  and  _563
REMARK  235  A    between atoms: _563  and  _564
REMARK  236  A    between atoms: _564  and  _565
REMARK  237  A    between atoms: _574  and  _576
REMARK  238  A    between atoms: _576  and  _577
REMARK  239  A    between atoms: _576  and  _579
REMARK  240  A    between atoms: _579  and  _580
REMARK                            x       y       z     vdW  Elec       q    Type
REMARK                         _______ _______ _______ _____ _____    ______ ____
ROOT
ATOM      1  O   HOH     1      25.049  19.675   0.308  0.00  0.00    +0.000 OA
ENDROOT
TORSDOF 0
REMARK  Name = ../refined-set-2016/2wl0/2wl0_pocket.pdb
REMARK  240 active torsions:
REMARK  status: ('A' for Active; 'I' for Inactive)
REMARK    1  A    between atoms: _1  and  _3
REMARK    2  A    between atoms: _3  and  _4
REMARK    3  A    between atoms: _3  and  _6
REMARK    4  A    between atoms: _6  and  _7
REMARK    5  A    between atoms: _7  and  _8
REMARK    6  A    between atoms: _8  and  _9
REMARK    7  A    between atoms: _18  and  _20
REMARK    8  A    between atoms: _20  and  _21
REMARK    9  A    between atoms: _20  and  _23
REMARK   10  A    between atoms: _23  and  _24
REMARK   11  A    between atoms: _27  and  _29
REMARK   12  A    between atoms: _29  and  _30
REMARK   13  A    between atoms: _29  and  _32
REMARK   14  A    between atoms: _32  and  _33
REMARK   15  A    between atoms: _36  and  _38
REMARK   16  A    between atoms: _38  and  _39
REMARK   17  A    between atoms: _38  and  _41
REMARK   18  A    between atoms: _41  and  _42
REMARK   19  A    between atoms: _45  and  _47
REMARK   20  A    between atoms: _47  and  _48
REMARK   21  A    between atoms: _47  and  _50
REMARK   22  A    between atoms: _50  and  _51
REMARK   23  A    between atoms: _54  and  _56
REMARK   24  A    between atoms: _56  and  _57
REMARK   25  A    between atoms: _59  and  _61
REMARK   26  A    between atoms: _61  and  _62
REMARK   27  A    between atoms: _65  and  _67
REMARK   28  A    between atoms: _67  and  _68
REMARK   29  A    between atoms: _67  and  _70
REMARK   30  A    between atoms: _70  and  _71
REMARK   31  A    between atoms: _74  and  _76
REMARK   32  A    between atoms: _76  and  _77
REMARK   33  A    between atoms: _76  and  _79
REMARK   34  A    between atoms: _79  and  _80
REMARK   35  A    between atoms: _83  and  _85
REMARK   36  A    between atoms: _85  and  _86
REMARK   37  A    between atoms: _85  and  _88
REMARK   38  A    between atoms: _88  and  _89
REMARK   39  A    between atoms: _92  and  _94
REMARK   40  A    between atoms: _94  and  _95
REMARK   41  A    between atoms: _94  and  _97
REMARK   42  A    between atoms: _100  and  _102
REMARK   43  A    between atoms: _102  and  _103
REMARK   44  A    between atoms: _102  and  _105
REMARK   45  A    between atoms: _105  and  _106
REMARK   46  A    between atoms: _109  and  _111
REMARK   47  A    between atoms: _111  and  _112
REMARK   48  A    between atoms: _111  and  _114
REMARK   49  A    between atoms: _114  and  _115
REMARK   50  A    between atoms: _115  and  _116
REMARK   51  A    between atoms: _116  and  _117
REMARK   52  A    between atoms: _117  and  _118
REMARK   53  A    between atoms: _122  and  _124
REMARK   54  A    between atoms: _124  and  _125
REMARK   55  A    between atoms: _124  and  _127
REMARK   56  A    between atoms: _127  and  _128
REMARK   57  A    between atoms: _128  and  _129
REMARK   58  A    between atoms: _131  and  _133
REMARK   59  A    between atoms: _133  and  _134
REMARK   60  A    between atoms: _133  and  _136
REMARK   61  A    between atoms: _136  and  _137
REMARK   62  A    between atoms: _140  and  _142
REMARK   63  A    between atoms: _142  and  _143
REMARK   64  A    between atoms: _145  and  _147
REMARK   65  A    between atoms: _147  and  _148
REMARK   66  A    between atoms: _150  and  _152
REMARK   67  A    between atoms: _152  and  _153
REMARK   68  A    between atoms: _152  and  _155
REMARK   69  A    between atoms: _155  and  _156
REMARK   70  A    between atoms: _159  and  _161
REMARK   71  A    between atoms: _161  and  _162
REMARK   72  A    between atoms: _164  and  _166
REMARK   73  A    between atoms: _166  and  _167
REMARK   74  A    between atoms: _169  and  _171
REMARK   75  A    between atoms: _171  and  _172
REMARK   76  A    between atoms: _171  and  _174
REMARK   77  A    between atoms: _174  and  _175
REMARK   78  A    between atoms: _181  and  _183
REMARK   79  A    between atoms: _183  and  _184
REMARK   80  A    between atoms: _183  and  _186
REMARK   81  A    between atoms: _186  and  _187
REMARK   82  A    between atoms: _190  and  _192
REMARK   83  A    between atoms: _192  and  _193
REMARK   84  A    between atoms: _192  and  _195
REMARK   85  A    between atoms: _198  and  _200
REMARK   86  A    between atoms: _200  and  _201
REMARK   87  A    between atoms: _200  and  _203
REMARK   88  A    between atoms: _203  and  _204
REMARK   89  A    between atoms: _207  and  _209
REMARK   90  A    between atoms: _209  and  _210
REMARK   91  A    between atoms: _209  and  _212
REMARK   92  A    between atoms: _212  and  _213
REMARK   93  A    between atoms: _217  and  _218
REMARK   94  A    between atoms: _223  and  _225
REMARK   95  A    between atoms: _225  and  _226
REMARK   96  A    between atoms: _225  and  _228
REMARK   97  A    between atoms: _228  and  _229
REMARK   98  A    between atoms: _232  and  _234
REMARK   99  A    between atoms: _234  and  _235
REMARK  100  A    between atoms: _234  and  _237
REMARK  101  A    between atoms: _237  and  _238
REMARK  102  A    between atoms: _243  and  _245
REMARK  103  A    between atoms: _245  and  _246
REMARK  104  A    between atoms: _245  and  _248
REMARK  105  A    between atoms: _251  and  _253
REMARK  106  A    between atoms: _253  and  _254
REMARK  107  A    between atoms: _253  and  _256
REMARK  108  A    between atoms: _256  and  _257
REMARK  109  A    between atoms: _260  and  _262
REMARK  110  A    between atoms: _262  and  _263
REMARK  111  A    between atoms: _265  and  _267
REMARK  112  A    between atoms: _267  and  _268
REMARK  113  A    between atoms: _267  and  _270
REMARK  114  A    between atoms: _270  and  _271
REMARK  115  A    between atoms: _271  and  _272
REMARK  116  A    between atoms: _272  and  _273
REMARK  117  A    between atoms: _282  and  _284
REMARK  118  A    between atoms: _284  and  _285
REMARK  119  A    between atoms: _284  and  _287
REMARK  120  A    between atoms: _287  and  _288
REMARK  121  A    between atoms: _293  and  _295
REMARK  122  A    between atoms: _295  and  _296
REMARK  123  A    between atoms: _295  and  _298
REMARK  124  A    between atoms: _298  and  _299
REMARK  125  A    between atoms: _299  and  _300
REMARK  126  A    between atoms: _300  and  _301
REMARK  127  A    between atoms: _310  and  _312
REMARK  128  A    between atoms: _312  and  _313
REMARK  129  A    between atoms: _312  and  _315
REMARK  130  A    between atoms: _315  and  _316
REMARK  131  A    between atoms: _319  and  _321
REMARK  132  A    between atoms: _321  and  _322
REMARK  133  A    between atoms: _321  and  _324
REMARK  134  A    between atoms: _324  and  _325
REMARK  135  A    between atoms: _328  and  _330
REMARK  136  A    between atoms: _330  and  _331
REMARK  137  A    between atoms: _330  and  _333
REMARK  138  A    between atoms: _333  and  _334
REMARK  139  A    between atoms: _337  and  _339
REMARK  140  A    between atoms: _339  and  _340
REMARK  141  A    between atoms: _339  and  _342
REMARK  142  A    between atoms: _342  and  _343
REMARK  143  A    between atoms: _346  and  _348
REMARK  144  A    between atoms: _348  and  _349
REMARK  145  A    between atoms: _348  and  _351
REMARK  146  A    between atoms: _351  and  _352
REMARK  147  A    between atoms: _355  and  _357
REMARK  148  A    between atoms: _357  and  _358
REMARK  149  A    between atoms: _360  and  _362
REMARK  150  A    between atoms: _362  and  _363
REMARK  151  A    between atoms: _366  and  _368
REMARK  152  A    between atoms: _368  and  _369
REMARK  153  A    between atoms: _368  and  _371
REMARK  154  A    between atoms: _371  and  _372
REMARK  155  A    between atoms: _375  and  _377
REMARK  156  A    between atoms: _377  and  _378
REMARK  157  A    between atoms: _377  and  _380
REMARK  158  A    between atoms: _380  and  _381
REMARK  159  A    between atoms: _384  and  _386
REMARK  160  A    between atoms: _386  and  _387
REMARK  161  A    between atoms: _386  and  _389
REMARK  162  A    between atoms: _389  and  _390
REMARK  163  A    between atoms: _393  and  _395
REMARK  164  A    between atoms: _395  and  _396
REMARK  165  A    between atoms: _395  and  _398
REMARK  166  A    between atoms: _401  and  _403
REMARK  167  A    between atoms: _403  and  _404
REMARK  168  A    between atoms: _403  and  _406
REMARK  169  A    between atoms: _406  and  _407
REMARK  170  A    between atoms: _407  and  _408
REMARK  171  A    between atoms: _408  and  _409
REMARK  172  A    between atoms: _409  and  _410
REMARK  173  A    between atoms: _414  and  _416
REMARK  174  A    between atoms: _416  and  _417
REMARK  175  A    between atoms: _416  and  _419
REMARK  176  A    between atoms: _419  and  _420
REMARK  177  A    between atoms: _420  and  _421
REMARK  178  A    between atoms: _423  and  _425
REMARK  179  A    between atoms: _425  and  _426
REMARK  180  A    between atoms: _425  and  _428
REMARK  181  A    between atoms: _428  and  _429
REMARK  182  A    between atoms: _432  and  _434
REMARK  183  A    between atoms: _434  and  _435
REMARK  184  A    between atoms: _437  and  _439
REMARK  185  A    between atoms: _439  and  _440
REMARK  186  A    between atoms: _442  and  _444
REMARK  187  A    between atoms: _444  and  _445
REMARK  188  A    between atoms: _444  and  _447
REMARK  189  A    between atoms: _447  and  _448
REMARK  190  A    between atoms: _451  and  _453
REMARK  191  A    between atoms: _453  and  _454
REMARK  192  A    between atoms: _456  and  _458
REMARK  193  A    between atoms: _458  and  _459
REMARK  194  A    between atoms: _461  and  _463
REMARK  195  A    between atoms: _463  and  _464
REMARK  196  A    between atoms: _463  and  _466
REMARK  197  A    between atoms: _466  and  _467
REMARK  198  A    between atoms: _473  and  _475
REMARK  199  A    between atoms: _475  and  _476
REMARK  200  A    between atoms: _475  and  _478
REMARK  201  A    between atoms: _478  and  _479
REMARK  202  A    between atoms: _482  and  _484
REMARK  203  A    between atoms: _484  and  _485
REMARK  204  A    between atoms: _484  and  _487
REMARK  205  A    between atoms: _490  and  _492
REMARK  206  A    between atoms: _492  and  _493
REMARK  207  A    between atoms: _492  and  _495
REMARK  208  A    between atoms: _495  and  _496
REMARK  209  A    between atoms: _499  and  _501
REMARK  210  A    between atoms: _501  and  _502
REMARK  211  A    between atoms: _501  and  _504
REMARK  212  A    between atoms: _504  and  _505
REMARK  213  A    between atoms: _509  and  _510
REMARK  214  A    between atoms: _515  and  _517
REMARK  215  A    between atoms: _517  and  _518
REMARK  216  A    between atoms: _517  and  _520
REMARK  217  A    between atoms: _520  and  _521
REMARK  218  A    between atoms: _524  and  _526
REMARK  219  A    between atoms: _526  and  _527
REMARK  220  A    between atoms: _526  and  _529
REMARK  221  A    between atoms: _529  and  _530
REMARK  222  A    between atoms: _535  and  _537
REMARK  223  A    between atoms: _537  and  _538
REMARK  224  A    between atoms: _537  and  _540
REMARK  225  A    between atoms: _543  and  _545
REMARK  226  A    between atoms: _545  and  _546
REMARK  227  A    between atoms: _545  and  _548
REMARK  228  A    between atoms: _548  and  _549
REMARK  229  A    between atoms: _552  and  _554
REMARK  230  A    between atoms: _554  and  _555
REMARK  231  A    between atoms: _557  and  _559
REMARK  232  A    between atoms: _559  and  _560
REMARK  233  A    between atoms: _559  and  _562
REMARK  234  A    between atoms: _562  and  _563
REMARK  235  A    between atoms: _563  and  _564
REMARK  236  A    between atoms: _564  and  _565
REMARK  237  A    between atoms: _574  and  _576
REMARK  238  A    between atoms: _576  and  _577
REMARK  239  A    between atoms: _576  and  _579
REMARK  240  A    between atoms: _579  and  _580
REMARK                            x       y       z     vdW  Elec       q    Type
REMARK                         _______ _______ _______ _____ _____    ______ ____
ROOT
ATOM      1  O   HOH     1      25.283  18.025   6.149  0.00  0.00    +0.000 OA
ENDROOT
TORSDOF 0
REMARK  Name = ../refined-set-2016/2wl0/2wl0_pocket.pdb
REMARK  240 active torsions:
REMARK  status: ('A' for Active; 'I' for Inactive)
REMARK    1  A    between atoms: _1  and  _3
REMARK    2  A    between atoms: _3  and  _4
REMARK    3  A    between atoms: _3  and  _6
REMARK    4  A    between atoms: _6  and  _7
REMARK    5  A    between atoms: _7  and  _8
REMARK    6  A    between atoms: _8  and  _9
REMARK    7  A    between atoms: _18  and  _20
REMARK    8  A    between atoms: _20  and  _21
REMARK    9  A    between atoms: _20  and  _23
REMARK   10  A    between atoms: _23  and  _24
REMARK   11  A    between atoms: _27  and  _29
REMARK   12  A    between atoms: _29  and  _30
REMARK   13  A    between atoms: _29  and  _32
REMARK   14  A    between atoms: _32  and  _33
REMARK   15  A    between atoms: _36  and  _38
REMARK   16  A    between atoms: _38  and  _39
REMARK   17  A    between atoms: _38  and  _41
REMARK   18  A    between atoms: _41  and  _42
REMARK   19  A    between atoms: _45  and  _47
REMARK   20  A    between atoms: _47  and  _48
REMARK   21  A    between atoms: _47  and  _50
REMARK   22  A    between atoms: _50  and  _51
REMARK   23  A    between atoms: _54  and  _56
REMARK   24  A    between atoms: _56  and  _57
REMARK   25  A    between atoms: _59  and  _61
REMARK   26  A    between atoms: _61  and  _62
REMARK   27  A    between atoms: _65  and  _67
REMARK   28  A    between atoms: _67  and  _68
REMARK   29  A    between atoms: _67  and  _70
REMARK   30  A    between atoms: _70  and  _71
REMARK   31  A    between atoms: _74  and  _76
REMARK   32  A    between atoms: _76  and  _77
REMARK   33  A    between atoms: _76  and  _79
REMARK   34  A    between atoms: _79  and  _80
REMARK   35  A    between atoms: _83  and  _85
REMARK   36  A    between atoms: _85  and  _86
REMARK   37  A    between atoms: _85  and  _88
REMARK   38  A    between atoms: _88  and  _89
REMARK   39  A    between atoms: _92  and  _94
REMARK   40  A    between atoms: _94  and  _95
REMARK   41  A    between atoms: _94  and  _97
REMARK   42  A    between atoms: _100  and  _102
REMARK   43  A    between atoms: _102  and  _103
REMARK   44  A    between atoms: _102  and  _105
REMARK   45  A    between atoms: _105  and  _106
REMARK   46  A    between atoms: _109  and  _111
REMARK   47  A    between atoms: _111  and  _112
REMARK   48  A    between atoms: _111  and  _114
REMARK   49  A    between atoms: _114  and  _115
REMARK   50  A    between atoms: _115  and  _116
REMARK   51  A    between atoms: _116  and  _117
REMARK   52  A    between atoms: _117  and  _118
REMARK   53  A    between atoms: _122  and  _124
REMARK   54  A    between atoms: _124  and  _125
REMARK   55  A    between atoms: _124  and  _127
REMARK   56  A    between atoms: _127  and  _128
REMARK   57  A    between atoms: _128  and  _129
REMARK   58  A    between atoms: _131  and  _133
REMARK   59  A    between atoms: _133  and  _134
REMARK   60  A    between atoms: _133  and  _136
REMARK   61  A    between atoms: _136  and  _137
REMARK   62  A    between atoms: _140  and  _142
REMARK   63  A    between atoms: _142  and  _143
REMARK   64  A    between atoms: _145  and  _147
REMARK   65  A    between atoms: _147  and  _148
REMARK   66  A    between atoms: _150  and  _152
REMARK   67  A    between atoms: _152  and  _153
REMARK   68  A    between atoms: _152  and  _155
REMARK   69  A    between atoms: _155  and  _156
REMARK   70  A    between atoms: _159  and  _161
REMARK   71  A    between atoms: _161  and  _162
REMARK   72  A    between atoms: _164  and  _166
REMARK   73  A    between atoms: _166  and  _167
REMARK   74  A    between atoms: _169  and  _171
REMARK   75  A    between atoms: _171  and  _172
REMARK   76  A    between atoms: _171  and  _174
REMARK   77  A    between atoms: _174  and  _175
REMARK   78  A    between atoms: _181  and  _183
REMARK   79  A    between atoms: _183  and  _184
REMARK   80  A    between atoms: _183  and  _186
REMARK   81  A    between atoms: _186  and  _187
REMARK   82  A    between atoms: _190  and  _192
REMARK   83  A    between atoms: _192  and  _193
REMARK   84  A    between atoms: _192  and  _195
REMARK   85  A    between atoms: _198  and  _200
REMARK   86  A    between atoms: _200  and  _201
REMARK   87  A    between atoms: _200  and  _203
REMARK   88  A    between atoms: _203  and  _204
REMARK   89  A    between atoms: _207  and  _209
REMARK   90  A    between atoms: _209  and  _210
REMARK   91  A    between atoms: _209  and  _212
REMARK   92  A    between atoms: _212  and  _213
REMARK   93  A    between atoms: _217  and  _218
REMARK   94  A    between atoms: _223  and  _225
REMARK   95  A    between atoms: _225  and  _226
REMARK   96  A    between atoms: _225  and  _228
REMARK   97  A    between atoms: _228  and  _229
REMARK   98  A    between atoms: _232  and  _234
REMARK   99  A    between atoms: _234  and  _235
REMARK  100  A    between atoms: _234  and  _237
REMARK  101  A    between atoms: _237  and  _238
REMARK  102  A    between atoms: _243  and  _245
REMARK  103  A    between atoms: _245  and  _246
REMARK  104  A    between atoms: _245  and  _248
REMARK  105  A    between atoms: _251  and  _253
REMARK  106  A    between atoms: _253  and  _254
REMARK  107  A    between atoms: _253  and  _256
REMARK  108  A    between atoms: _256  and  _257
REMARK  109  A    between atoms: _260  and  _262
REMARK  110  A    between atoms: _262  and  _263
REMARK  111  A    between atoms: _265  and  _267
REMARK  112  A    between atoms: _267  and  _268
REMARK  113  A    between atoms: _267  and  _270
REMARK  114  A    between atoms: _270  and  _271
REMARK  115  A    between atoms: _271  and  _272
REMARK  116  A    between atoms: _272  and  _273
REMARK  117  A    between atoms: _282  and  _284
REMARK  118  A    between atoms: _284  and  _285
REMARK  119  A    between atoms: _284  and  _287
REMARK  120  A    between atoms: _287  and  _288
REMARK  121  A    between atoms: _293  and  _295
REMARK  122  A    between atoms: _295  and  _296
REMARK  123  A    between atoms: _295  and  _298
REMARK  124  A    between atoms: _298  and  _299
REMARK  125  A    between atoms: _299  and  _300
REMARK  126  A    between atoms: _300  and  _301
REMARK  127  A    between atoms: _310  and  _312
REMARK  128  A    between atoms: _312  and  _313
REMARK  129  A    between atoms: _312  and  _315
REMARK  130  A    between atoms: _315  and  _316
REMARK  131  A    between atoms: _319  and  _321
REMARK  132  A    between atoms: _321  and  _322
REMARK  133  A    between atoms: _321  and  _324
REMARK  134  A    between atoms: _324  and  _325
REMARK  135  A    between atoms: _328  and  _330
REMARK  136  A    between atoms: _330  and  _331
REMARK  137  A    between atoms: _330  and  _333
REMARK  138  A    between atoms: _333  and  _334
REMARK  139  A    between atoms: _337  and  _339
REMARK  140  A    between atoms: _339  and  _340
REMARK  141  A    between atoms: _339  and  _342
REMARK  142  A    between atoms: _342  and  _343
REMARK  143  A    between atoms: _346  and  _348
REMARK  144  A    between atoms: _348  and  _349
REMARK  145  A    between atoms: _348  and  _351
REMARK  146  A    between atoms: _351  and  _352
REMARK  147  A    between atoms: _355  and  _357
REMARK  148  A    between atoms: _357  and  _358
REMARK  149  A    between atoms: _360  and  _362
REMARK  150  A    between atoms: _362  and  _363
REMARK  151  A    between atoms: _366  and  _368
REMARK  152  A    between atoms: _368  and  _369
REMARK  153  A    between atoms: _368  and  _371
REMARK  154  A    between atoms: _371  and  _372
REMARK  155  A    between atoms: _375  and  _377
REMARK  156  A    between atoms: _377  and  _378
REMARK  157  A    between atoms: _377  and  _380
REMARK  158  A    between atoms: _380  and  _381
REMARK  159  A    between atoms: _384  and  _386
REMARK  160  A    between atoms: _386  and  _387
REMARK  161  A    between atoms: _386  and  _389
REMARK  162  A    between atoms: _389  and  _390
REMARK  163  A    between atoms: _393  and  _395
REMARK  164  A    between atoms: _395  and  _396
REMARK  165  A    between atoms: _395  and  _398
REMARK  166  A    between atoms: _401  and  _403
REMARK  167  A    between atoms: _403  and  _404
REMARK  168  A    between atoms: _403  and  _406
REMARK  169  A    between atoms: _406  and  _407
REMARK  170  A    between atoms: _407  and  _408
REMARK  171  A    between atoms: _408  and  _409
REMARK  172  A    between atoms: _409  and  _410
REMARK  173  A    between atoms: _414  and  _416
REMARK  174  A    between atoms: _416  and  _417
REMARK  175  A    between atoms: _416  and  _419
REMARK  176  A    between atoms: _419  and  _420
REMARK  177  A    between atoms: _420  and  _421
REMARK  178  A    between atoms: _423  and  _425
REMARK  179  A    between atoms: _425  and  _426
REMARK  180  A    between atoms: _425  and  _428
REMARK  181  A    between atoms: _428  and  _429
REMARK  182  A    between atoms: _432  and  _434
REMARK  183  A    between atoms: _434  and  _435
REMARK  184  A    between atoms: _437  and  _439
REMARK  185  A    between atoms: _439  and  _440
REMARK  186  A    between atoms: _442  and  _444
REMARK  187  A    between atoms: _444  and  _445
REMARK  188  A    between atoms: _444  and  _447
REMARK  189  A    between atoms: _447  and  _448
REMARK  190  A    between atoms: _451  and  _453
REMARK  191  A    between atoms: _453  and  _454
REMARK  192  A    between atoms: _456  and  _458
REMARK  193  A    between atoms: _458  and  _459
REMARK  194  A    between atoms: _461  and  _463
REMARK  195  A    between atoms: _463  and  _464
REMARK  196  A    between atoms: _463  and  _466
REMARK  197  A    between atoms: _466  and  _467
REMARK  198  A    between atoms: _473  and  _475
REMARK  199  A    between atoms: _475  and  _476
REMARK  200  A    between atoms: _475  and  _478
REMARK  201  A    between atoms: _478  and  _479
REMARK  202  A    between atoms: _482  and  _484
REMARK  203  A    between atoms: _484  and  _485
REMARK  204  A    between atoms: _484  and  _487
REMARK  205  A    between atoms: _490  and  _492
REMARK  206  A    between atoms: _492  and  _493
REMARK  207  A    between atoms: _492  and  _495
REMARK  208  A    between atoms: _495  and  _496
REMARK  209  A    between atoms: _499  and  _501
REMARK  210  A    between atoms: _501  and  _502
REMARK  211  A    between atoms: _501  and  _504
REMARK  212  A    between atoms: _504  and  _505
REMARK  213  A    between atoms: _509  and  _510
REMARK  214  A    between atoms: _515  and  _517
REMARK  215  A    between atoms: _517  and  _518
REMARK  216  A    between atoms: _517  and  _520
REMARK  217  A    between atoms: _520  and  _521
REMARK  218  A    between atoms: _524  and  _526
REMARK  219  A    between atoms: _526  and  _527
REMARK  220  A    between atoms: _526  and  _529
REMARK  221  A    between atoms: _529  and  _530
REMARK  222  A    between atoms: _535  and  _537
REMARK  223  A    between atoms: _537  and  _538
REMARK  224  A    between atoms: _537  and  _540
REMARK  225  A    between atoms: _543  and  _545
REMARK  226  A    between atoms: _545  and  _546
REMARK  227  A    between atoms: _545  and  _548
REMARK  228  A    between atoms: _548  and  _549
REMARK  229  A    between atoms: _552  and  _554
REMARK  230  A    between atoms: _554  and  _555
REMARK  231  A    between atoms: _557  and  _559
REMARK  232  A    between atoms: _559  and  _560
REMARK  233  A    between atoms: _559  and  _562
REMARK  234  A    between atoms: _562  and  _563
REMARK  235  A    between atoms: _563  and  _564
REMARK  236  A    between atoms: _564  and  _565
REMARK  237  A    between atoms: _574  and  _576
REMARK  238  A    between atoms: _576  and  _577
REMARK  239  A    between atoms: _576  and  _579
REMARK  240  A    between atoms: _579  and  _580
REMARK                            x       y       z     vdW  Elec       q    Type
REMARK                         _______ _______ _______ _____ _____    ______ ____
ROOT
ATOM      1  O   HOH     1      22.223  15.717   4.880  0.00  0.00    +0.000 OA
ENDROOT
TORSDOF 0
REMARK  Name = ../refined-set-2016/2wl0/2wl0_pocket.pdb
REMARK  240 active torsions:
REMARK  status: ('A' for Active; 'I' for Inactive)
REMARK    1  A    between atoms: _1  and  _3
REMARK    2  A    between atoms: _3  and  _4
REMARK    3  A    between atoms: _3  and  _6
REMARK    4  A    between atoms: _6  and  _7
REMARK    5  A    between atoms: _7  and  _8
REMARK    6  A    between atoms: _8  and  _9
REMARK    7  A    between atoms: _18  and  _20
REMARK    8  A    between atoms: _20  and  _21
REMARK    9  A    between atoms: _20  and  _23
REMARK   10  A    between atoms: _23  and  _24
REMARK   11  A    between atoms: _27  and  _29
REMARK   12  A    between atoms: _29  and  _30
REMARK   13  A    between atoms: _29  and  _32
REMARK   14  A    between atoms: _32  and  _33
REMARK   15  A    between atoms: _36  and  _38
REMARK   16  A    between atoms: _38  and  _39
REMARK   17  A    between atoms: _38  and  _41
REMARK   18  A    between atoms: _41  and  _42
REMARK   19  A    between atoms: _45  and  _47
REMARK   20  A    between atoms: _47  and  _48
REMARK   21  A    between atoms: _47  and  _50
REMARK   22  A    between atoms: _50  and  _51
REMARK   23  A    between atoms: _54  and  _56
REMARK   24  A    between atoms: _56  and  _57
REMARK   25  A    between atoms: _59  and  _61
REMARK   26  A    between atoms: _61  and  _62
REMARK   27  A    between atoms: _65  and  _67
REMARK   28  A    between atoms: _67  and  _68
REMARK   29  A    between atoms: _67  and  _70
REMARK   30  A    between atoms: _70  and  _71
REMARK   31  A    between atoms: _74  and  _76
REMARK   32  A    between atoms: _76  and  _77
REMARK   33  A    between atoms: _76  and  _79
REMARK   34  A    between atoms: _79  and  _80
REMARK   35  A    between atoms: _83  and  _85
REMARK   36  A    between atoms: _85  and  _86
REMARK   37  A    between atoms: _85  and  _88
REMARK   38  A    between atoms: _88  and  _89
REMARK   39  A    between atoms: _92  and  _94
REMARK   40  A    between atoms: _94  and  _95
REMARK   41  A    between atoms: _94  and  _97
REMARK   42  A    between atoms: _100  and  _102
REMARK   43  A    between atoms: _102  and  _103
REMARK   44  A    between atoms: _102  and  _105
REMARK   45  A    between atoms: _105  and  _106
REMARK   46  A    between atoms: _109  and  _111
REMARK   47  A    between atoms: _111  and  _112
REMARK   48  A    between atoms: _111  and  _114
REMARK   49  A    between atoms: _114  and  _115
REMARK   50  A    between atoms: _115  and  _116
REMARK   51  A    between atoms: _116  and  _117
REMARK   52  A    between atoms: _117  and  _118
REMARK   53  A    between atoms: _122  and  _124
REMARK   54  A    between atoms: _124  and  _125
REMARK   55  A    between atoms: _124  and  _127
REMARK   56  A    between atoms: _127  and  _128
REMARK   57  A    between atoms: _128  and  _129
REMARK   58  A    between atoms: _131  and  _133
REMARK   59  A    between atoms: _133  and  _134
REMARK   60  A    between atoms: _133  and  _136
REMARK   61  A    between atoms: _136  and  _137
REMARK   62  A    between atoms: _140  and  _142
REMARK   63  A    between atoms: _142  and  _143
REMARK   64  A    between atoms: _145  and  _147
REMARK   65  A    between atoms: _147  and  _148
REMARK   66  A    between atoms: _150  and  _152
REMARK   67  A    between atoms: _152  and  _153
REMARK   68  A    between atoms: _152  and  _155
REMARK   69  A    between atoms: _155  and  _156
REMARK   70  A    between atoms: _159  and  _161
REMARK   71  A    between atoms: _161  and  _162
REMARK   72  A    between atoms: _164  and  _166
REMARK   73  A    between atoms: _166  and  _167
REMARK   74  A    between atoms: _169  and  _171
REMARK   75  A    between atoms: _171  and  _172
REMARK   76  A    between atoms: _171  and  _174
REMARK   77  A    between atoms: _174  and  _175
REMARK   78  A    between atoms: _181  and  _183
REMARK   79  A    between atoms: _183  and  _184
REMARK   80  A    between atoms: _183  and  _186
REMARK   81  A    between atoms: _186  and  _187
REMARK   82  A    between atoms: _190  and  _192
REMARK   83  A    between atoms: _192  and  _193
REMARK   84  A    between atoms: _192  and  _195
REMARK   85  A    between atoms: _198  and  _200
REMARK   86  A    between atoms: _200  and  _201
REMARK   87  A    between atoms: _200  and  _203
REMARK   88  A    between atoms: _203  and  _204
REMARK   89  A    between atoms: _207  and  _209
REMARK   90  A    between atoms: _209  and  _210
REMARK   91  A    between atoms: _209  and  _212
REMARK   92  A    between atoms: _212  and  _213
REMARK   93  A    between atoms: _217  and  _218
REMARK   94  A    between atoms: _223  and  _225
REMARK   95  A    between atoms: _225  and  _226
REMARK   96  A    between atoms: _225  and  _228
REMARK   97  A    between atoms: _228  and  _229
REMARK   98  A    between atoms: _232  and  _234
REMARK   99  A    between atoms: _234  and  _235
REMARK  100  A    between atoms: _234  and  _237
REMARK  101  A    between atoms: _237  and  _238
REMARK  102  A    between atoms: _243  and  _245
REMARK  103  A    between atoms: _245  and  _246
REMARK  104  A    between atoms: _245  and  _248
REMARK  105  A    between atoms: _251  and  _253
REMARK  106  A    between atoms: _253  and  _254
REMARK  107  A    between atoms: _253  and  _256
REMARK  108  A    between atoms: _256  and  _257
REMARK  109  A    between atoms: _260  and  _262
REMARK  110  A    between atoms: _262  and  _263
REMARK  111  A    between atoms: _265  and  _267
REMARK  112  A    between atoms: _267  and  _268
REMARK  113  A    between atoms: _267  and  _270
REMARK  114  A    between atoms: _270  and  _271
REMARK  115  A    between atoms: _271  and  _272
REMARK  116  A    between atoms: _272  and  _273
REMARK  117  A    between atoms: _282  and  _284
REMARK  118  A    between atoms: _284  and  _285
REMARK  119  A    between atoms: _284  and  _287
REMARK  120  A    between atoms: _287  and  _288
REMARK  121  A    between atoms: _293  and  _295
REMARK  122  A    between atoms: _295  and  _296
REMARK  123  A    between atoms: _295  and  _298
REMARK  124  A    between atoms: _298  and  _299
REMARK  125  A    between atoms: _299  and  _300
REMARK  126  A    between atoms: _300  and  _301
REMARK  127  A    between atoms: _310  and  _312
REMARK  128  A    between atoms: _312  and  _313
REMARK  129  A    between atoms: _312  and  _315
REMARK  130  A    between atoms: _315  and  _316
REMARK  131  A    between atoms: _319  and  _321
REMARK  132  A    between atoms: _321  and  _322
REMARK  133  A    between atoms: _321  and  _324
REMARK  134  A    between atoms: _324  and  _325
REMARK  135  A    between atoms: _328  and  _330
REMARK  136  A    between atoms: _330  and  _331
REMARK  137  A    between atoms: _330  and  _333
REMARK  138  A    between atoms: _333  and  _334
REMARK  139  A    between atoms: _337  and  _339
REMARK  140  A    between atoms: _339  and  _340
REMARK  141  A    between atoms: _339  and  _342
REMARK  142  A    between atoms: _342  and  _343
REMARK  143  A    between atoms: _346  and  _348
REMARK  144  A    between atoms: _348  and  _349
REMARK  145  A    between atoms: _348  and  _351
REMARK  146  A    between atoms: _351  and  _352
REMARK  147  A    between atoms: _355  and  _357
REMARK  148  A    between atoms: _357  and  _358
REMARK  149  A    between atoms: _360  and  _362
REMARK  150  A    between atoms: _362  and  _363
REMARK  151  A    between atoms: _366  and  _368
REMARK  152  A    between atoms: _368  and  _369
REMARK  153  A    between atoms: _368  and  _371
REMARK  154  A    between atoms: _371  and  _372
REMARK  155  A    between atoms: _375  and  _377
REMARK  156  A    between atoms: _377  and  _378
REMARK  157  A    between atoms: _377  and  _380
REMARK  158  A    between atoms: _380  and  _381
REMARK  159  A    between atoms: _384  and  _386
REMARK  160  A    between atoms: _386  and  _387
REMARK  161  A    between atoms: _386  and  _389
REMARK  162  A    between atoms: _389  and  _390
REMARK  163  A    between atoms: _393  and  _395
REMARK  164  A    between atoms: _395  and  _396
REMARK  165  A    between atoms: _395  and  _398
REMARK  166  A    between atoms: _401  and  _403
REMARK  167  A    between atoms: _403  and  _404
REMARK  168  A    between atoms: _403  and  _406
REMARK  169  A    between atoms: _406  and  _407
REMARK  170  A    between atoms: _407  and  _408
REMARK  171  A    between atoms: _408  and  _409
REMARK  172  A    between atoms: _409  and  _410
REMARK  173  A    between atoms: _414  and  _416
REMARK  174  A    between atoms: _416  and  _417
REMARK  175  A    between atoms: _416  and  _419
REMARK  176  A    between atoms: _419  and  _420
REMARK  177  A    between atoms: _420  and  _421
REMARK  178  A    between atoms: _423  and  _425
REMARK  179  A    between atoms: _425  and  _426
REMARK  180  A    between atoms: _425  and  _428
REMARK  181  A    between atoms: _428  and  _429
REMARK  182  A    between atoms: _432  and  _434
REMARK  183  A    between atoms: _434  and  _435
REMARK  184  A    between atoms: _437  and  _439
REMARK  185  A    between atoms: _439  and  _440
REMARK  186  A    between atoms: _442  and  _444
REMARK  187  A    between atoms: _444  and  _445
REMARK  188  A    between atoms: _444  and  _447
REMARK  189  A    between atoms: _447  and  _448
REMARK  190  A    between atoms: _451  and  _453
REMARK  191  A    between atoms: _453  and  _454
REMARK  192  A    between atoms: _456  and  _458
REMARK  193  A    between atoms: _458  and  _459
REMARK  194  A    between atoms: _461  and  _463
REMARK  195  A    between atoms: _463  and  _464
REMARK  196  A    between atoms: _463  and  _466
REMARK  197  A    between atoms: _466  and  _467
REMARK  198  A    between atoms: _473  and  _475
REMARK  199  A    between atoms: _475  and  _476
REMARK  200  A    between atoms: _475  and  _478
REMARK  201  A    between atoms: _478  and  _479
REMARK  202  A    between atoms: _482  and  _484
REMARK  203  A    between atoms: _484  and  _485
REMARK  204  A    between atoms: _484  and  _487
REMARK  205  A    between atoms: _490  and  _492
REMARK  206  A    between atoms: _492  and  _493
REMARK  207  A    between atoms: _492  and  _495
REMARK  208  A    between atoms: _495  and  _496
REMARK  209  A    between atoms: _499  and  _501
REMARK  210  A    between atoms: _501  and  _502
REMARK  211  A    between atoms: _501  and  _504
REMARK  212  A    between atoms: _504  and  _505
REMARK  213  A    between atoms: _509  and  _510
REMARK  214  A    between atoms: _515  and  _517
REMARK  215  A    between atoms: _517  and  _518
REMARK  216  A    between atoms: _517  and  _520
REMARK  217  A    between atoms: _520  and  _521
REMARK  218  A    between atoms: _524  and  _526
REMARK  219  A    between atoms: _526  and  _527
REMARK  220  A    between atoms: _526  and  _529
REMARK  221  A    between atoms: _529  and  _530
REMARK  222  A    between atoms: _535  and  _537
REMARK  223  A    between atoms: _537  and  _538
REMARK  224  A    between atoms: _537  and  _540
REMARK  225  A    between atoms: _543  and  _545
REMARK  226  A    between atoms: _545  and  _546
REMARK  227  A    between atoms: _545  and  _548
REMARK  228  A    between atoms: _548  and  _549
REMARK  229  A    between atoms: _552  and  _554
REMARK  230  A    between atoms: _554  and  _555
REMARK  231  A    between atoms: _557  and  _559
REMARK  232  A    between atoms: _559  and  _560
REMARK  233  A    between atoms: _559  and  _562
REMARK  234  A    between atoms: _562  and  _563
REMARK  235  A    between atoms: _563  and  _564
REMARK  236  A    between atoms: _564  and  _565
REMARK  237  A    between atoms: _574  and  _576
REMARK  238  A    between atoms: _576  and  _577
REMARK  239  A    between atoms: _576  and  _579
REMARK  240  A    between atoms: _579  and  _580
REMARK                            x       y       z     vdW  Elec       q    Type
REMARK                         _______ _______ _______ _____ _____    ______ ____
ROOT
ATOM      1  O   HOH     1      22.696  15.717  -2.342  0.00  0.00    +0.000 OA
ENDROOT
TORSDOF 0
REMARK  Name = ../refined-set-2016/2wl0/2wl0_pocket.pdb
REMARK  240 active torsions:
REMARK  status: ('A' for Active; 'I' for Inactive)
REMARK    1  A    between atoms: _1  and  _3
REMARK    2  A    between atoms: _3  and  _4
REMARK    3  A    between atoms: _3  and  _6
REMARK    4  A    between atoms: _6  and  _7
REMARK    5  A    between atoms: _7  and  _8
REMARK    6  A    between atoms: _8  and  _9
REMARK    7  A    between atoms: _18  and  _20
REMARK    8  A    between atoms: _20  and  _21
REMARK    9  A    between atoms: _20  and  _23
REMARK   10  A    between atoms: _23  and  _24
REMARK   11  A    between atoms: _27  and  _29
REMARK   12  A    between atoms: _29  and  _30
REMARK   13  A    between atoms: _29  and  _32
REMARK   14  A    between atoms: _32  and  _33
REMARK   15  A    between atoms: _36  and  _38
REMARK   16  A    between atoms: _38  and  _39
REMARK   17  A    between atoms: _38  and  _41
REMARK   18  A    between atoms: _41  and  _42
REMARK   19  A    between atoms: _45  and  _47
REMARK   20  A    between atoms: _47  and  _48
REMARK   21  A    between atoms: _47  and  _50
REMARK   22  A    between atoms: _50  and  _51
REMARK   23  A    between atoms: _54  and  _56
REMARK   24  A    between atoms: _56  and  _57
REMARK   25  A    between atoms: _59  and  _61
REMARK   26  A    between atoms: _61  and  _62
REMARK   27  A    between atoms: _65  and  _67
REMARK   28  A    between atoms: _67  and  _68
REMARK   29  A    between atoms: _67  and  _70
REMARK   30  A    between atoms: _70  and  _71
REMARK   31  A    between atoms: _74  and  _76
REMARK   32  A    between atoms: _76  and  _77
REMARK   33  A    between atoms: _76  and  _79
REMARK   34  A    between atoms: _79  and  _80
REMARK   35  A    between atoms: _83  and  _85
REMARK   36  A    between atoms: _85  and  _86
REMARK   37  A    between atoms: _85  and  _88
REMARK   38  A    between atoms: _88  and  _89
REMARK   39  A    between atoms: _92  and  _94
REMARK   40  A    between atoms: _94  and  _95
REMARK   41  A    between atoms: _94  and  _97
REMARK   42  A    between atoms: _100  and  _102
REMARK   43  A    between atoms: _102  and  _103
REMARK   44  A    between atoms: _102  and  _105
REMARK   45  A    between atoms: _105  and  _106
REMARK   46  A    between atoms: _109  and  _111
REMARK   47  A    between atoms: _111  and  _112
REMARK   48  A    between atoms: _111  and  _114
REMARK   49  A    between atoms: _114  and  _115
REMARK   50  A    between atoms: _115  and  _116
REMARK   51  A    between atoms: _116  and  _117
REMARK   52  A    between atoms: _117  and  _118
REMARK   53  A    between atoms: _122  and  _124
REMARK   54  A    between atoms: _124  and  _125
REMARK   55  A    between atoms: _124  and  _127
REMARK   56  A    between atoms: _127  and  _128
REMARK   57  A    between atoms: _128  and  _129
REMARK   58  A    between atoms: _131  and  _133
REMARK   59  A    between atoms: _133  and  _134
REMARK   60  A    between atoms: _133  and  _136
REMARK   61  A    between atoms: _136  and  _137
REMARK   62  A    between atoms: _140  and  _142
REMARK   63  A    between atoms: _142  and  _143
REMARK   64  A    between atoms: _145  and  _147
REMARK   65  A    between atoms: _147  and  _148
REMARK   66  A    between atoms: _150  and  _152
REMARK   67  A    between atoms: _152  and  _153
REMARK   68  A    between atoms: _152  and  _155
REMARK   69  A    between atoms: _155  and  _156
REMARK   70  A    between atoms: _159  and  _161
REMARK   71  A    between atoms: _161  and  _162
REMARK   72  A    between atoms: _164  and  _166
REMARK   73  A    between atoms: _166  and  _167
REMARK   74  A    between atoms: _169  and  _171
REMARK   75  A    between atoms: _171  and  _172
REMARK   76  A    between atoms: _171  and  _174
REMARK   77  A    between atoms: _174  and  _175
REMARK   78  A    between atoms: _181  and  _183
REMARK   79  A    between atoms: _183  and  _184
REMARK   80  A    between atoms: _183  and  _186
REMARK   81  A    between atoms: _186  and  _187
REMARK   82  A    between atoms: _190  and  _192
REMARK   83  A    between atoms: _192  and  _193
REMARK   84  A    between atoms: _192  and  _195
REMARK   85  A    between atoms: _198  and  _200
REMARK   86  A    between atoms: _200  and  _201
REMARK   87  A    between atoms: _200  and  _203
REMARK   88  A    between atoms: _203  and  _204
REMARK   89  A    between atoms: _207  and  _209
REMARK   90  A    between atoms: _209  and  _210
REMARK   91  A    between atoms: _209  and  _212
REMARK   92  A    between atoms: _212  and  _213
REMARK   93  A    between atoms: _217  and  _218
REMARK   94  A    between atoms: _223  and  _225
REMARK   95  A    between atoms: _225  and  _226
REMARK   96  A    between atoms: _225  and  _228
REMARK   97  A    between atoms: _228  and  _229
REMARK   98  A    between atoms: _232  and  _234
REMARK   99  A    between atoms: _234  and  _235
REMARK  100  A    between atoms: _234  and  _237
REMARK  101  A    between atoms: _237  and  _238
REMARK  102  A    between atoms: _243  and  _245
REMARK  103  A    between atoms: _245  and  _246
REMARK  104  A    between atoms: _245  and  _248
REMARK  105  A    between atoms: _251  and  _253
REMARK  106  A    between atoms: _253  and  _254
REMARK  107  A    between atoms: _253  and  _256
REMARK  108  A    between atoms: _256  and  _257
REMARK  109  A    between atoms: _260  and  _262
REMARK  110  A    between atoms: _262  and  _263
REMARK  111  A    between atoms: _265  and  _267
REMARK  112  A    between atoms: _267  and  _268
REMARK  113  A    between atoms: _267  and  _270
REMARK  114  A    between atoms: _270  and  _271
REMARK  115  A    between atoms: _271  and  _272
REMARK  116  A    between atoms: _272  and  _273
REMARK  117  A    between atoms: _282  and  _284
REMARK  118  A    between atoms: _284  and  _285
REMARK  119  A    between atoms: _284  and  _287
REMARK  120  A    between atoms: _287  and  _288
REMARK  121  A    between atoms: _293  and  _295
REMARK  122  A    between atoms: _295  and  _296
REMARK  123  A    between atoms: _295  and  _298
REMARK  124  A    between atoms: _298  and  _299
REMARK  125  A    between atoms: _299  and  _300
REMARK  126  A    between atoms: _300  and  _301
REMARK  127  A    between atoms: _310  and  _312
REMARK  128  A    between atoms: _312  and  _313
REMARK  129  A    between atoms: _312  and  _315
REMARK  130  A    between atoms: _315  and  _316
REMARK  131  A    between atoms: _319  and  _321
REMARK  132  A    between atoms: _321  and  _322
REMARK  133  A    between atoms: _321  and  _324
REMARK  134  A    between atoms: _324  and  _325
REMARK  135  A    between atoms: _328  and  _330
REMARK  136  A    between atoms: _330  and  _331
REMARK  137  A    between atoms: _330  and  _333
REMARK  138  A    between atoms: _333  and  _334
REMARK  139  A    between atoms: _337  and  _339
REMARK  140  A    between atoms: _339  and  _340
REMARK  141  A    between atoms: _339  and  _342
REMARK  142  A    between atoms: _342  and  _343
REMARK  143  A    between atoms: _346  and  _348
REMARK  144  A    between atoms: _348  and  _349
REMARK  145  A    between atoms: _348  and  _351
REMARK  146  A    between atoms: _351  and  _352
REMARK  147  A    between atoms: _355  and  _357
REMARK  148  A    between atoms: _357  and  _358
REMARK  149  A    between atoms: _360  and  _362
REMARK  150  A    between atoms: _362  and  _363
REMARK  151  A    between atoms: _366  and  _368
REMARK  152  A    between atoms: _368  and  _369
REMARK  153  A    between atoms: _368  and  _371
REMARK  154  A    between atoms: _371  and  _372
REMARK  155  A    between atoms: _375  and  _377
REMARK  156  A    between atoms: _377  and  _378
REMARK  157  A    between atoms: _377  and  _380
REMARK  158  A    between atoms: _380  and  _381
REMARK  159  A    between atoms: _384  and  _386
REMARK  160  A    between atoms: _386  and  _387
REMARK  161  A    between atoms: _386  and  _389
REMARK  162  A    between atoms: _389  and  _390
REMARK  163  A    between atoms: _393  and  _395
REMARK  164  A    between atoms: _395  and  _396
REMARK  165  A    between atoms: _395  and  _398
REMARK  166  A    between atoms: _401  and  _403
REMARK  167  A    between atoms: _403  and  _404
REMARK  168  A    between atoms: _403  and  _406
REMARK  169  A    between atoms: _406  and  _407
REMARK  170  A    between atoms: _407  and  _408
REMARK  171  A    between atoms: _408  and  _409
REMARK  172  A    between atoms: _409  and  _410
REMARK  173  A    between atoms: _414  and  _416
REMARK  174  A    between atoms: _416  and  _417
REMARK  175  A    between atoms: _416  and  _419
REMARK  176  A    between atoms: _419  and  _420
REMARK  177  A    between atoms: _420  and  _421
REMARK  178  A    between atoms: _423  and  _425
REMARK  179  A    between atoms: _425  and  _426
REMARK  180  A    between atoms: _425  and  _428
REMARK  181  A    between atoms: _428  and  _429
REMARK  182  A    between atoms: _432  and  _434
REMARK  183  A    between atoms: _434  and  _435
REMARK  184  A    between atoms: _437  and  _439
REMARK  185  A    between atoms: _439  and  _440
REMARK  186  A    between atoms: _442  and  _444
REMARK  187  A    between atoms: _444  and  _445
REMARK  188  A    between atoms: _444  and  _447
REMARK  189  A    between atoms: _447  and  _448
REMARK  190  A    between atoms: _451  and  _453
REMARK  191  A    between atoms: _453  and  _454
REMARK  192  A    between atoms: _456  and  _458
REMARK  193  A    between atoms: _458  and  _459
REMARK  194  A    between atoms: _461  and  _463
REMARK  195  A    between atoms: _463  and  _464
REMARK  196  A    between atoms: _463  and  _466
REMARK  197  A    between atoms: _466  and  _467
REMARK  198  A    between atoms: _473  and  _475
REMARK  199  A    between atoms: _475  and  _476
REMARK  200  A    between atoms: _475  and  _478
REMARK  201  A    between atoms: _478  and  _479
REMARK  202  A    between atoms: _482  and  _484
REMARK  203  A    between atoms: _484  and  _485
REMARK  204  A    between atoms: _484  and  _487
REMARK  205  A    between atoms: _490  and  _492
REMARK  206  A    between atoms: _492  and  _493
REMARK  207  A    between atoms: _492  and  _495
REMARK  208  A    between atoms: _495  and  _496
REMARK  209  A    between atoms: _499  and  _501
REMARK  210  A    between atoms: _501  and  _502
REMARK  211  A    between atoms: _501  and  _504
REMARK  212  A    between atoms: _504  and  _505
REMARK  213  A    between atoms: _509  and  _510
REMARK  214  A    between atoms: _515  and  _517
REMARK  215  A    between atoms: _517  and  _518
REMARK  216  A    between atoms: _517  and  _520
REMARK  217  A    between atoms: _520  and  _521
REMARK  218  A    between atoms: _524  and  _526
REMARK  219  A    between atoms: _526  and  _527
REMARK  220  A    between atoms: _526  and  _529
REMARK  221  A    between atoms: _529  and  _530
REMARK  222  A    between atoms: _535  and  _537
REMARK  223  A    between atoms: _537  and  _538
REMARK  224  A    between atoms: _537  and  _540
REMARK  225  A    between atoms: _543  and  _545
REMARK  226  A    between atoms: _545  and  _546
REMARK  227  A    between atoms: _545  and  _548
REMARK  228  A    between atoms: _548  and  _549
REMARK  229  A    between atoms: _552  and  _554
REMARK  230  A    between atoms: _554  and  _555
REMARK  231  A    between atoms: _557  and  _559
REMARK  232  A    between atoms: _559  and  _560
REMARK  233  A    between atoms: _559  and  _562
REMARK  234  A    between atoms: _562  and  _563
REMARK  235  A    between atoms: _563  and  _564
REMARK  236  A    between atoms: _564  and  _565
REMARK  237  A    between atoms: _574  and  _576
REMARK  238  A    between atoms: _576  and  _577
REMARK  239  A    between atoms: _576  and  _579
REMARK  240  A    between atoms: _579  and  _580
REMARK                            x       y       z     vdW  Elec       q    Type
REMARK                         _______ _______ _______ _____ _____    ______ ____
ROOT
ATOM      1  O   HOH     1      19.701  15.467   3.938  0.00  0.00    +0.000 OA
ENDROOT
TORSDOF 0
REMARK  Name = ../refined-set-2016/2wl0/2wl0_pocket.pdb
REMARK  240 active torsions:
REMARK  status: ('A' for Active; 'I' for Inactive)
REMARK    1  A    between atoms: _1  and  _3
REMARK    2  A    between atoms: _3  and  _4
REMARK    3  A    between atoms: _3  and  _6
REMARK    4  A    between atoms: _6  and  _7
REMARK    5  A    between atoms: _7  and  _8
REMARK    6  A    between atoms: _8  and  _9
REMARK    7  A    between atoms: _18  and  _20
REMARK    8  A    between atoms: _20  and  _21
REMARK    9  A    between atoms: _20  and  _23
REMARK   10  A    between atoms: _23  and  _24
REMARK   11  A    between atoms: _27  and  _29
REMARK   12  A    between atoms: _29  and  _30
REMARK   13  A    between atoms: _29  and  _32
REMARK   14  A    between atoms: _32  and  _33
REMARK   15  A    between atoms: _36  and  _38
REMARK   16  A    between atoms: _38  and  _39
REMARK   17  A    between atoms: _38  and  _41
REMARK   18  A    between atoms: _41  and  _42
REMARK   19  A    between atoms: _45  and  _47
REMARK   20  A    between atoms: _47  and  _48
REMARK   21  A    between atoms: _47  and  _50
REMARK   22  A    between atoms: _50  and  _51
REMARK   23  A    between atoms: _54  and  _56
REMARK   24  A    between atoms: _56  and  _57
REMARK   25  A    between atoms: _59  and  _61
REMARK   26  A    between atoms: _61  and  _62
REMARK   27  A    between atoms: _65  and  _67
REMARK   28  A    between atoms: _67  and  _68
REMARK   29  A    between atoms: _67  and  _70
REMARK   30  A    between atoms: _70  and  _71
REMARK   31  A    between atoms: _74  and  _76
REMARK   32  A    between atoms: _76  and  _77
REMARK   33  A    between atoms: _76  and  _79
REMARK   34  A    between atoms: _79  and  _80
REMARK   35  A    between atoms: _83  and  _85
REMARK   36  A    between atoms: _85  and  _86
REMARK   37  A    between atoms: _85  and  _88
REMARK   38  A    between atoms: _88  and  _89
REMARK   39  A    between atoms: _92  and  _94
REMARK   40  A    between atoms: _94  and  _95
REMARK   41  A    between atoms: _94  and  _97
REMARK   42  A    between atoms: _100  and  _102
REMARK   43  A    between atoms: _102  and  _103
REMARK   44  A    between atoms: _102  and  _105
REMARK   45  A    between atoms: _105  and  _106
REMARK   46  A    between atoms: _109  and  _111
REMARK   47  A    between atoms: _111  and  _112
REMARK   48  A    between atoms: _111  and  _114
REMARK   49  A    between atoms: _114  and  _115
REMARK   50  A    between atoms: _115  and  _116
REMARK   51  A    between atoms: _116  and  _117
REMARK   52  A    between atoms: _117  and  _118
REMARK   53  A    between atoms: _122  and  _124
REMARK   54  A    between atoms: _124  and  _125
REMARK   55  A    between atoms: _124  and  _127
REMARK   56  A    between atoms: _127  and  _128
REMARK   57  A    between atoms: _128  and  _129
REMARK   58  A    between atoms: _131  and  _133
REMARK   59  A    between atoms: _133  and  _134
REMARK   60  A    between atoms: _133  and  _136
REMARK   61  A    between atoms: _136  and  _137
REMARK   62  A    between atoms: _140  and  _142
REMARK   63  A    between atoms: _142  and  _143
REMARK   64  A    between atoms: _145  and  _147
REMARK   65  A    between atoms: _147  and  _148
REMARK   66  A    between atoms: _150  and  _152
REMARK   67  A    between atoms: _152  and  _153
REMARK   68  A    between atoms: _152  and  _155
REMARK   69  A    between atoms: _155  and  _156
REMARK   70  A    between atoms: _159  and  _161
REMARK   71  A    between atoms: _161  and  _162
REMARK   72  A    between atoms: _164  and  _166
REMARK   73  A    between atoms: _166  and  _167
REMARK   74  A    between atoms: _169  and  _171
REMARK   75  A    between atoms: _171  and  _172
REMARK   76  A    between atoms: _171  and  _174
REMARK   77  A    between atoms: _174  and  _175
REMARK   78  A    between atoms: _181  and  _183
REMARK   79  A    between atoms: _183  and  _184
REMARK   80  A    between atoms: _183  and  _186
REMARK   81  A    between atoms: _186  and  _187
REMARK   82  A    between atoms: _190  and  _192
REMARK   83  A    between atoms: _192  and  _193
REMARK   84  A    between atoms: _192  and  _195
REMARK   85  A    between atoms: _198  and  _200
REMARK   86  A    between atoms: _200  and  _201
REMARK   87  A    between atoms: _200  and  _203
REMARK   88  A    between atoms: _203  and  _204
REMARK   89  A    between atoms: _207  and  _209
REMARK   90  A    between atoms: _209  and  _210
REMARK   91  A    between atoms: _209  and  _212
REMARK   92  A    between atoms: _212  and  _213
REMARK   93  A    between atoms: _217  and  _218
REMARK   94  A    between atoms: _223  and  _225
REMARK   95  A    between atoms: _225  and  _226
REMARK   96  A    between atoms: _225  and  _228
REMARK   97  A    between atoms: _228  and  _229
REMARK   98  A    between atoms: _232  and  _234
REMARK   99  A    between atoms: _234  and  _235
REMARK  100  A    between atoms: _234  and  _237
REMARK  101  A    between atoms: _237  and  _238
REMARK  102  A    between atoms: _243  and  _245
REMARK  103  A    between atoms: _245  and  _246
REMARK  104  A    between atoms: _245  and  _248
REMARK  105  A    between atoms: _251  and  _253
REMARK  106  A    between atoms: _253  and  _254
REMARK  107  A    between atoms: _253  and  _256
REMARK  108  A    between atoms: _256  and  _257
REMARK  109  A    between atoms: _260  and  _262
REMARK  110  A    between atoms: _262  and  _263
REMARK  111  A    between atoms: _265  and  _267
REMARK  112  A    between atoms: _267  and  _268
REMARK  113  A    between atoms: _267  and  _270
REMARK  114  A    between atoms: _270  and  _271
REMARK  115  A    between atoms: _271  and  _272
REMARK  116  A    between atoms: _272  and  _273
REMARK  117  A    between atoms: _282  and  _284
REMARK  118  A    between atoms: _284  and  _285
REMARK  119  A    between atoms: _284  and  _287
REMARK  120  A    between atoms: _287  and  _288
REMARK  121  A    between atoms: _293  and  _295
REMARK  122  A    between atoms: _295  and  _296
REMARK  123  A    between atoms: _295  and  _298
REMARK  124  A    between atoms: _298  and  _299
REMARK  125  A    between atoms: _299  and  _300
REMARK  126  A    between atoms: _300  and  _301
REMARK  127  A    between atoms: _310  and  _312
REMARK  128  A    between atoms: _312  and  _313
REMARK  129  A    between atoms: _312  and  _315
REMARK  130  A    between atoms: _315  and  _316
REMARK  131  A    between atoms: _319  and  _321
REMARK  132  A    between atoms: _321  and  _322
REMARK  133  A    between atoms: _321  and  _324
REMARK  134  A    between atoms: _324  and  _325
REMARK  135  A    between atoms: _328  and  _330
REMARK  136  A    between atoms: _330  and  _331
REMARK  137  A    between atoms: _330  and  _333
REMARK  138  A    between atoms: _333  and  _334
REMARK  139  A    between atoms: _337  and  _339
REMARK  140  A    between atoms: _339  and  _340
REMARK  141  A    between atoms: _339  and  _342
REMARK  142  A    between atoms: _342  and  _343
REMARK  143  A    between atoms: _346  and  _348
REMARK  144  A    between atoms: _348  and  _349
REMARK  145  A    between atoms: _348  and  _351
REMARK  146  A    between atoms: _351  and  _352
REMARK  147  A    between atoms: _355  and  _357
REMARK  148  A    between atoms: _357  and  _358
REMARK  149  A    between atoms: _360  and  _362
REMARK  150  A    between atoms: _362  and  _363
REMARK  151  A    between atoms: _366  and  _368
REMARK  152  A    between atoms: _368  and  _369
REMARK  153  A    between atoms: _368  and  _371
REMARK  154  A    between atoms: _371  and  _372
REMARK  155  A    between atoms: _375  and  _377
REMARK  156  A    between atoms: _377  and  _378
REMARK  157  A    between atoms: _377  and  _380
REMARK  158  A    between atoms: _380  and  _381
REMARK  159  A    between atoms: _384  and  _386
REMARK  160  A    between atoms: _386  and  _387
REMARK  161  A    between atoms: _386  and  _389
REMARK  162  A    between atoms: _389  and  _390
REMARK  163  A    between atoms: _393  and  _395
REMARK  164  A    between atoms: _395  and  _396
REMARK  165  A    between atoms: _395  and  _398
REMARK  166  A    between atoms: _401  and  _403
REMARK  167  A    between atoms: _403  and  _404
REMARK  168  A    between atoms: _403  and  _406
REMARK  169  A    between atoms: _406  and  _407
REMARK  170  A    between atoms: _407  and  _408
REMARK  171  A    between atoms: _408  and  _409
REMARK  172  A    between atoms: _409  and  _410
REMARK  173  A    between atoms: _414  and  _416
REMARK  174  A    between atoms: _416  and  _417
REMARK  175  A    between atoms: _416  and  _419
REMARK  176  A    between atoms: _419  and  _420
REMARK  177  A    between atoms: _420  and  _421
REMARK  178  A    between atoms: _423  and  _425
REMARK  179  A    between atoms: _425  and  _426
REMARK  180  A    between atoms: _425  and  _428
REMARK  181  A    between atoms: _428  and  _429
REMARK  182  A    between atoms: _432  and  _434
REMARK  183  A    between atoms: _434  and  _435
REMARK  184  A    between atoms: _437  and  _439
REMARK  185  A    between atoms: _439  and  _440
REMARK  186  A    between atoms: _442  and  _444
REMARK  187  A    between atoms: _444  and  _445
REMARK  188  A    between atoms: _444  and  _447
REMARK  189  A    between atoms: _447  and  _448
REMARK  190  A    between atoms: _451  and  _453
REMARK  191  A    between atoms: _453  and  _454
REMARK  192  A    between atoms: _456  and  _458
REMARK  193  A    between atoms: _458  and  _459
REMARK  194  A    between atoms: _461  and  _463
REMARK  195  A    between atoms: _463  and  _464
REMARK  196  A    between atoms: _463  and  _466
REMARK  197  A    between atoms: _466  and  _467
REMARK  198  A    between atoms: _473  and  _475
REMARK  199  A    between atoms: _475  and  _476
REMARK  200  A    between atoms: _475  and  _478
REMARK  201  A    between atoms: _478  and  _479
REMARK  202  A    between atoms: _482  and  _484
REMARK  203  A    between atoms: _484  and  _485
REMARK  204  A    between atoms: _484  and  _487
REMARK  205  A    between atoms: _490  and  _492
REMARK  206  A    between atoms: _492  and  _493
REMARK  207  A    between atoms: _492  and  _495
REMARK  208  A    between atoms: _495  and  _496
REMARK  209  A    between atoms: _499  and  _501
REMARK  210  A    between atoms: _501  and  _502
REMARK  211  A    between atoms: _501  and  _504
REMARK  212  A    between atoms: _504  and  _505
REMARK  213  A    between atoms: _509  and  _510
REMARK  214  A    between atoms: _515  and  _517
REMARK  215  A    between atoms: _517  and  _518
REMARK  216  A    between atoms: _517  and  _520
REMARK  217  A    between atoms: _520  and  _521
REMARK  218  A    between atoms: _524  and  _526
REMARK  219  A    between atoms: _526  and  _527
REMARK  220  A    between atoms: _526  and  _529
REMARK  221  A    between atoms: _529  and  _530
REMARK  222  A    between atoms: _535  and  _537
REMARK  223  A    between atoms: _537  and  _538
REMARK  224  A    between atoms: _537  and  _540
REMARK  225  A    between atoms: _543  and  _545
REMARK  226  A    between atoms: _545  and  _546
REMARK  227  A    between atoms: _545  and  _548
REMARK  228  A    between atoms: _548  and  _549
REMARK  229  A    between atoms: _552  and  _554
REMARK  230  A    between atoms: _554  and  _555
REMARK  231  A    between atoms: _557  and  _559
REMARK  232  A    between atoms: _559  and  _560
REMARK  233  A    between atoms: _559  and  _562
REMARK  234  A    between atoms: _562  and  _563
REMARK  235  A    between atoms: _563  and  _564
REMARK  236  A    between atoms: _564  and  _565
REMARK  237  A    between atoms: _574  and  _576
REMARK  238  A    between atoms: _576  and  _577
REMARK  239  A    between atoms: _576  and  _579
REMARK  240  A    between atoms: _579  and  _580
REMARK                            x       y       z     vdW  Elec       q    Type
REMARK                         _______ _______ _______ _____ _____    ______ ____
ROOT
ATOM      1  O   HOH     1      23.670  15.368   2.116  0.00  0.00    +0.000 OA
ENDROOT
TORSDOF 0
REMARK  Name = ../refined-set-2016/2wl0/2wl0_pocket.pdb
REMARK  240 active torsions:
REMARK  status: ('A' for Active; 'I' for Inactive)
REMARK    1  A    between atoms: _1  and  _3
REMARK    2  A    between atoms: _3  and  _4
REMARK    3  A    between atoms: _3  and  _6
REMARK    4  A    between atoms: _6  and  _7
REMARK    5  A    between atoms: _7  and  _8
REMARK    6  A    between atoms: _8  and  _9
REMARK    7  A    between atoms: _18  and  _20
REMARK    8  A    between atoms: _20  and  _21
REMARK    9  A    between atoms: _20  and  _23
REMARK   10  A    between atoms: _23  and  _24
REMARK   11  A    between atoms: _27  and  _29
REMARK   12  A    between atoms: _29  and  _30
REMARK   13  A    between atoms: _29  and  _32
REMARK   14  A    between atoms: _32  and  _33
REMARK   15  A    between atoms: _36  and  _38
REMARK   16  A    between atoms: _38  and  _39
REMARK   17  A    between atoms: _38  and  _41
REMARK   18  A    between atoms: _41  and  _42
REMARK   19  A    between atoms: _45  and  _47
REMARK   20  A    between atoms: _47  and  _48
REMARK   21  A    between atoms: _47  and  _50
REMARK   22  A    between atoms: _50  and  _51
REMARK   23  A    between atoms: _54  and  _56
REMARK   24  A    between atoms: _56  and  _57
REMARK   25  A    between atoms: _59  and  _61
REMARK   26  A    between atoms: _61  and  _62
REMARK   27  A    between atoms: _65  and  _67
REMARK   28  A    between atoms: _67  and  _68
REMARK   29  A    between atoms: _67  and  _70
REMARK   30  A    between atoms: _70  and  _71
REMARK   31  A    between atoms: _74  and  _76
REMARK   32  A    between atoms: _76  and  _77
REMARK   33  A    between atoms: _76  and  _79
REMARK   34  A    between atoms: _79  and  _80
REMARK   35  A    between atoms: _83  and  _85
REMARK   36  A    between atoms: _85  and  _86
REMARK   37  A    between atoms: _85  and  _88
REMARK   38  A    between atoms: _88  and  _89
REMARK   39  A    between atoms: _92  and  _94
REMARK   40  A    between atoms: _94  and  _95
REMARK   41  A    between atoms: _94  and  _97
REMARK   42  A    between atoms: _100  and  _102
REMARK   43  A    between atoms: _102  and  _103
REMARK   44  A    between atoms: _102  and  _105
REMARK   45  A    between atoms: _105  and  _106
REMARK   46  A    between atoms: _109  and  _111
REMARK   47  A    between atoms: _111  and  _112
REMARK   48  A    between atoms: _111  and  _114
REMARK   49  A    between atoms: _114  and  _115
REMARK   50  A    between atoms: _115  and  _116
REMARK   51  A    between atoms: _116  and  _117
REMARK   52  A    between atoms: _117  and  _118
REMARK   53  A    between atoms: _122  and  _124
REMARK   54  A    between atoms: _124  and  _125
REMARK   55  A    between atoms: _124  and  _127
REMARK   56  A    between atoms: _127  and  _128
REMARK   57  A    between atoms: _128  and  _129
REMARK   58  A    between atoms: _131  and  _133
REMARK   59  A    between atoms: _133  and  _134
REMARK   60  A    between atoms: _133  and  _136
REMARK   61  A    between atoms: _136  and  _137
REMARK   62  A    between atoms: _140  and  _142
REMARK   63  A    between atoms: _142  and  _143
REMARK   64  A    between atoms: _145  and  _147
REMARK   65  A    between atoms: _147  and  _148
REMARK   66  A    between atoms: _150  and  _152
REMARK   67  A    between atoms: _152  and  _153
REMARK   68  A    between atoms: _152  and  _155
REMARK   69  A    between atoms: _155  and  _156
REMARK   70  A    between atoms: _159  and  _161
REMARK   71  A    between atoms: _161  and  _162
REMARK   72  A    between atoms: _164  and  _166
REMARK   73  A    between atoms: _166  and  _167
REMARK   74  A    between atoms: _169  and  _171
REMARK   75  A    between atoms: _171  and  _172
REMARK   76  A    between atoms: _171  and  _174
REMARK   77  A    between atoms: _174  and  _175
REMARK   78  A    between atoms: _181  and  _183
REMARK   79  A    between atoms: _183  and  _184
REMARK   80  A    between atoms: _183  and  _186
REMARK   81  A    between atoms: _186  and  _187
REMARK   82  A    between atoms: _190  and  _192
REMARK   83  A    between atoms: _192  and  _193
REMARK   84  A    between atoms: _192  and  _195
REMARK   85  A    between atoms: _198  and  _200
REMARK   86  A    between atoms: _200  and  _201
REMARK   87  A    between atoms: _200  and  _203
REMARK   88  A    between atoms: _203  and  _204
REMARK   89  A    between atoms: _207  and  _209
REMARK   90  A    between atoms: _209  and  _210
REMARK   91  A    between atoms: _209  and  _212
REMARK   92  A    between atoms: _212  and  _213
REMARK   93  A    between atoms: _217  and  _218
REMARK   94  A    between atoms: _223  and  _225
REMARK   95  A    between atoms: _225  and  _226
REMARK   96  A    between atoms: _225  and  _228
REMARK   97  A    between atoms: _228  and  _229
REMARK   98  A    between atoms: _232  and  _234
REMARK   99  A    between atoms: _234  and  _235
REMARK  100  A    between atoms: _234  and  _237
REMARK  101  A    between atoms: _237  and  _238
REMARK  102  A    between atoms: _243  and  _245
REMARK  103  A    between atoms: _245  and  _246
REMARK  104  A    between atoms: _245  and  _248
REMARK  105  A    between atoms: _251  and  _253
REMARK  106  A    between atoms: _253  and  _254
REMARK  107  A    between atoms: _253  and  _256
REMARK  108  A    between atoms: _256  and  _257
REMARK  109  A    between atoms: _260  and  _262
REMARK  110  A    between atoms: _262  and  _263
REMARK  111  A    between atoms: _265  and  _267
REMARK  112  A    between atoms: _267  and  _268
REMARK  113  A    between atoms: _267  and  _270
REMARK  114  A    between atoms: _270  and  _271
REMARK  115  A    between atoms: _271  and  _272
REMARK  116  A    between atoms: _272  and  _273
REMARK  117  A    between atoms: _282  and  _284
REMARK  118  A    between atoms: _284  and  _285
REMARK  119  A    between atoms: _284  and  _287
REMARK  120  A    between atoms: _287  and  _288
REMARK  121  A    between atoms: _293  and  _295
REMARK  122  A    between atoms: _295  and  _296
REMARK  123  A    between atoms: _295  and  _298
REMARK  124  A    between atoms: _298  and  _299
REMARK  125  A    between atoms: _299  and  _300
REMARK  126  A    between atoms: _300  and  _301
REMARK  127  A    between atoms: _310  and  _312
REMARK  128  A    between atoms: _312  and  _313
REMARK  129  A    between atoms: _312  and  _315
REMARK  130  A    between atoms: _315  and  _316
REMARK  131  A    between atoms: _319  and  _321
REMARK  132  A    between atoms: _321  and  _322
REMARK  133  A    between atoms: _321  and  _324
REMARK  134  A    between atoms: _324  and  _325
REMARK  135  A    between atoms: _328  and  _330
REMARK  136  A    between atoms: _330  and  _331
REMARK  137  A    between atoms: _330  and  _333
REMARK  138  A    between atoms: _333  and  _334
REMARK  139  A    between atoms: _337  and  _339
REMARK  140  A    between atoms: _339  and  _340
REMARK  141  A    between atoms: _339  and  _342
REMARK  142  A    between atoms: _342  and  _343
REMARK  143  A    between atoms: _346  and  _348
REMARK  144  A    between atoms: _348  and  _349
REMARK  145  A    between atoms: _348  and  _351
REMARK  146  A    between atoms: _351  and  _352
REMARK  147  A    between atoms: _355  and  _357
REMARK  148  A    between atoms: _357  and  _358
REMARK  149  A    between atoms: _360  and  _362
REMARK  150  A    between atoms: _362  and  _363
REMARK  151  A    between atoms: _366  and  _368
REMARK  152  A    between atoms: _368  and  _369
REMARK  153  A    between atoms: _368  and  _371
REMARK  154  A    between atoms: _371  and  _372
REMARK  155  A    between atoms: _375  and  _377
REMARK  156  A    between atoms: _377  and  _378
REMARK  157  A    between atoms: _377  and  _380
REMARK  158  A    between atoms: _380  and  _381
REMARK  159  A    between atoms: _384  and  _386
REMARK  160  A    between atoms: _386  and  _387
REMARK  161  A    between atoms: _386  and  _389
REMARK  162  A    between atoms: _389  and  _390
REMARK  163  A    between atoms: _393  and  _395
REMARK  164  A    between atoms: _395  and  _396
REMARK  165  A    between atoms: _395  and  _398
REMARK  166  A    between atoms: _401  and  _403
REMARK  167  A    between atoms: _403  and  _404
REMARK  168  A    between atoms: _403  and  _406
REMARK  169  A    between atoms: _406  and  _407
REMARK  170  A    between atoms: _407  and  _408
REMARK  171  A    between atoms: _408  and  _409
REMARK  172  A    between atoms: _409  and  _410
REMARK  173  A    between atoms: _414  and  _416
REMARK  174  A    between atoms: _416  and  _417
REMARK  175  A    between atoms: _416  and  _419
REMARK  176  A    between atoms: _419  and  _420
REMARK  177  A    between atoms: _420  and  _421
REMARK  178  A    between atoms: _423  and  _425
REMARK  179  A    between atoms: _425  and  _426
REMARK  180  A    between atoms: _425  and  _428
REMARK  181  A    between atoms: _428  and  _429
REMARK  182  A    between atoms: _432  and  _434
REMARK  183  A    between atoms: _434  and  _435
REMARK  184  A    between atoms: _437  and  _439
REMARK  185  A    between atoms: _439  and  _440
REMARK  186  A    between atoms: _442  and  _444
REMARK  187  A    between atoms: _444  and  _445
REMARK  188  A    between atoms: _444  and  _447
REMARK  189  A    between atoms: _447  and  _448
REMARK  190  A    between atoms: _451  and  _453
REMARK  191  A    between atoms: _453  and  _454
REMARK  192  A    between atoms: _456  and  _458
REMARK  193  A    between atoms: _458  and  _459
REMARK  194  A    between atoms: _461  and  _463
REMARK  195  A    between atoms: _463  and  _464
REMARK  196  A    between atoms: _463  and  _466
REMARK  197  A    between atoms: _466  and  _467
REMARK  198  A    between atoms: _473  and  _475
REMARK  199  A    between atoms: _475  and  _476
REMARK  200  A    between atoms: _475  and  _478
REMARK  201  A    between atoms: _478  and  _479
REMARK  202  A    between atoms: _482  and  _484
REMARK  203  A    between atoms: _484  and  _485
REMARK  204  A    between atoms: _484  and  _487
REMARK  205  A    between atoms: _490  and  _492
REMARK  206  A    between atoms: _492  and  _493
REMARK  207  A    between atoms: _492  and  _495
REMARK  208  A    between atoms: _495  and  _496
REMARK  209  A    between atoms: _499  and  _501
REMARK  210  A    between atoms: _501  and  _502
REMARK  211  A    between atoms: _501  and  _504
REMARK  212  A    between atoms: _504  and  _505
REMARK  213  A    between atoms: _509  and  _510
REMARK  214  A    between atoms: _515  and  _517
REMARK  215  A    between atoms: _517  and  _518
REMARK  216  A    between atoms: _517  and  _520
REMARK  217  A    between atoms: _520  and  _521
REMARK  218  A    between atoms: _524  and  _526
REMARK  219  A    between atoms: _526  and  _527
REMARK  220  A    between atoms: _526  and  _529
REMARK  221  A    between atoms: _529  and  _530
REMARK  222  A    between atoms: _535  and  _537
REMARK  223  A    between atoms: _537  and  _538
REMARK  224  A    between atoms: _537  and  _540
REMARK  225  A    between atoms: _543  and  _545
REMARK  226  A    between atoms: _545  and  _546
REMARK  227  A    between atoms: _545  and  _548
REMARK  228  A    between atoms: _548  and  _549
REMARK  229  A    between atoms: _552  and  _554
REMARK  230  A    between atoms: _554  and  _555
REMARK  231  A    between atoms: _557  and  _559
REMARK  232  A    between atoms: _559  and  _560
REMARK  233  A    between atoms: _559  and  _562
REMARK  234  A    between atoms: _562  and  _563
REMARK  235  A    between atoms: _563  and  _564
REMARK  236  A    between atoms: _564  and  _565
REMARK  237  A    between atoms: _574  and  _576
REMARK  238  A    between atoms: _576  and  _577
REMARK  239  A    between atoms: _576  and  _579
REMARK  240  A    between atoms: _579  and  _580
REMARK                            x       y       z     vdW  Elec       q    Type
REMARK                         _______ _______ _______ _____ _____    ______ ____
ROOT
ATOM      1  O   HOH     1      20.292  16.172  -3.651  0.00  0.00    +0.000 OA
ENDROOT
TORSDOF 0
REMARK  Name = ../refined-set-2016/2wl0/2wl0_pocket.pdb
REMARK  240 active torsions:
REMARK  status: ('A' for Active; 'I' for Inactive)
REMARK    1  A    between atoms: _1  and  _3
REMARK    2  A    between atoms: _3  and  _4
REMARK    3  A    between atoms: _3  and  _6
REMARK    4  A    between atoms: _6  and  _7
REMARK    5  A    between atoms: _7  and  _8
REMARK    6  A    between atoms: _8  and  _9
REMARK    7  A    between atoms: _18  and  _20
REMARK    8  A    between atoms: _20  and  _21
REMARK    9  A    between atoms: _20  and  _23
REMARK   10  A    between atoms: _23  and  _24
REMARK   11  A    between atoms: _27  and  _29
REMARK   12  A    between atoms: _29  and  _30
REMARK   13  A    between atoms: _29  and  _32
REMARK   14  A    between atoms: _32  and  _33
REMARK   15  A    between atoms: _36  and  _38
REMARK   16  A    between atoms: _38  and  _39
REMARK   17  A    between atoms: _38  and  _41
REMARK   18  A    between atoms: _41  and  _42
REMARK   19  A    between atoms: _45  and  _47
REMARK   20  A    between atoms: _47  and  _48
REMARK   21  A    between atoms: _47  and  _50
REMARK   22  A    between atoms: _50  and  _51
REMARK   23  A    between atoms: _54  and  _56
REMARK   24  A    between atoms: _56  and  _57
REMARK   25  A    between atoms: _59  and  _61
REMARK   26  A    between atoms: _61  and  _62
REMARK   27  A    between atoms: _65  and  _67
REMARK   28  A    between atoms: _67  and  _68
REMARK   29  A    between atoms: _67  and  _70
REMARK   30  A    between atoms: _70  and  _71
REMARK   31  A    between atoms: _74  and  _76
REMARK   32  A    between atoms: _76  and  _77
REMARK   33  A    between atoms: _76  and  _79
REMARK   34  A    between atoms: _79  and  _80
REMARK   35  A    between atoms: _83  and  _85
REMARK   36  A    between atoms: _85  and  _86
REMARK   37  A    between atoms: _85  and  _88
REMARK   38  A    between atoms: _88  and  _89
REMARK   39  A    between atoms: _92  and  _94
REMARK   40  A    between atoms: _94  and  _95
REMARK   41  A    between atoms: _94  and  _97
REMARK   42  A    between atoms: _100  and  _102
REMARK   43  A    between atoms: _102  and  _103
REMARK   44  A    between atoms: _102  and  _105
REMARK   45  A    between atoms: _105  and  _106
REMARK   46  A    between atoms: _109  and  _111
REMARK   47  A    between atoms: _111  and  _112
REMARK   48  A    between atoms: _111  and  _114
REMARK   49  A    between atoms: _114  and  _115
REMARK   50  A    between atoms: _115  and  _116
REMARK   51  A    between atoms: _116  and  _117
REMARK   52  A    between atoms: _117  and  _118
REMARK   53  A    between atoms: _122  and  _124
REMARK   54  A    between atoms: _124  and  _125
REMARK   55  A    between atoms: _124  and  _127
REMARK   56  A    between atoms: _127  and  _128
REMARK   57  A    between atoms: _128  and  _129
REMARK   58  A    between atoms: _131  and  _133
REMARK   59  A    between atoms: _133  and  _134
REMARK   60  A    between atoms: _133  and  _136
REMARK   61  A    between atoms: _136  and  _137
REMARK   62  A    between atoms: _140  and  _142
REMARK   63  A    between atoms: _142  and  _143
REMARK   64  A    between atoms: _145  and  _147
REMARK   65  A    between atoms: _147  and  _148
REMARK   66  A    between atoms: _150  and  _152
REMARK   67  A    between atoms: _152  and  _153
REMARK   68  A    between atoms: _152  and  _155
REMARK   69  A    between atoms: _155  and  _156
REMARK   70  A    between atoms: _159  and  _161
REMARK   71  A    between atoms: _161  and  _162
REMARK   72  A    between atoms: _164  and  _166
REMARK   73  A    between atoms: _166  and  _167
REMARK   74  A    between atoms: _169  and  _171
REMARK   75  A    between atoms: _171  and  _172
REMARK   76  A    between atoms: _171  and  _174
REMARK   77  A    between atoms: _174  and  _175
REMARK   78  A    between atoms: _181  and  _183
REMARK   79  A    between atoms: _183  and  _184
REMARK   80  A    between atoms: _183  and  _186
REMARK   81  A    between atoms: _186  and  _187
REMARK   82  A    between atoms: _190  and  _192
REMARK   83  A    between atoms: _192  and  _193
REMARK   84  A    between atoms: _192  and  _195
REMARK   85  A    between atoms: _198  and  _200
REMARK   86  A    between atoms: _200  and  _201
REMARK   87  A    between atoms: _200  and  _203
REMARK   88  A    between atoms: _203  and  _204
REMARK   89  A    between atoms: _207  and  _209
REMARK   90  A    between atoms: _209  and  _210
REMARK   91  A    between atoms: _209  and  _212
REMARK   92  A    between atoms: _212  and  _213
REMARK   93  A    between atoms: _217  and  _218
REMARK   94  A    between atoms: _223  and  _225
REMARK   95  A    between atoms: _225  and  _226
REMARK   96  A    between atoms: _225  and  _228
REMARK   97  A    between atoms: _228  and  _229
REMARK   98  A    between atoms: _232  and  _234
REMARK   99  A    between atoms: _234  and  _235
REMARK  100  A    between atoms: _234  and  _237
REMARK  101  A    between atoms: _237  and  _238
REMARK  102  A    between atoms: _243  and  _245
REMARK  103  A    between atoms: _245  and  _246
REMARK  104  A    between atoms: _245  and  _248
REMARK  105  A    between atoms: _251  and  _253
REMARK  106  A    between atoms: _253  and  _254
REMARK  107  A    between atoms: _253  and  _256
REMARK  108  A    between atoms: _256  and  _257
REMARK  109  A    between atoms: _260  and  _262
REMARK  110  A    between atoms: _262  and  _263
REMARK  111  A    between atoms: _265  and  _267
REMARK  112  A    between atoms: _267  and  _268
REMARK  113  A    between atoms: _267  and  _270
REMARK  114  A    between atoms: _270  and  _271
REMARK  115  A    between atoms: _271  and  _272
REMARK  116  A    between atoms: _272  and  _273
REMARK  117  A    between atoms: _282  and  _284
REMARK  118  A    between atoms: _284  and  _285
REMARK  119  A    between atoms: _284  and  _287
REMARK  120  A    between atoms: _287  and  _288
REMARK  121  A    between atoms: _293  and  _295
REMARK  122  A    between atoms: _295  and  _296
REMARK  123  A    between atoms: _295  and  _298
REMARK  124  A    between atoms: _298  and  _299
REMARK  125  A    between atoms: _299  and  _300
REMARK  126  A    between atoms: _300  and  _301
REMARK  127  A    between atoms: _310  and  _312
REMARK  128  A    between atoms: _312  and  _313
REMARK  129  A    between atoms: _312  and  _315
REMARK  130  A    between atoms: _315  and  _316
REMARK  131  A    between atoms: _319  and  _321
REMARK  132  A    between atoms: _321  and  _322
REMARK  133  A    between atoms: _321  and  _324
REMARK  134  A    between atoms: _324  and  _325
REMARK  135  A    between atoms: _328  and  _330
REMARK  136  A    between atoms: _330  and  _331
REMARK  137  A    between atoms: _330  and  _333
REMARK  138  A    between atoms: _333  and  _334
REMARK  139  A    between atoms: _337  and  _339
REMARK  140  A    between atoms: _339  and  _340
REMARK  141  A    between atoms: _339  and  _342
REMARK  142  A    between atoms: _342  and  _343
REMARK  143  A    between atoms: _346  and  _348
REMARK  144  A    between atoms: _348  and  _349
REMARK  145  A    between atoms: _348  and  _351
REMARK  146  A    between atoms: _351  and  _352
REMARK  147  A    between atoms: _355  and  _357
REMARK  148  A    between atoms: _357  and  _358
REMARK  149  A    between atoms: _360  and  _362
REMARK  150  A    between atoms: _362  and  _363
REMARK  151  A    between atoms: _366  and  _368
REMARK  152  A    between atoms: _368  and  _369
REMARK  153  A    between atoms: _368  and  _371
REMARK  154  A    between atoms: _371  and  _372
REMARK  155  A    between atoms: _375  and  _377
REMARK  156  A    between atoms: _377  and  _378
REMARK  157  A    between atoms: _377  and  _380
REMARK  158  A    between atoms: _380  and  _381
REMARK  159  A    between atoms: _384  and  _386
REMARK  160  A    between atoms: _386  and  _387
REMARK  161  A    between atoms: _386  and  _389
REMARK  162  A    between atoms: _389  and  _390
REMARK  163  A    between atoms: _393  and  _395
REMARK  164  A    between atoms: _395  and  _396
REMARK  165  A    between atoms: _395  and  _398
REMARK  166  A    between atoms: _401  and  _403
REMARK  167  A    between atoms: _403  and  _404
REMARK  168  A    between atoms: _403  and  _406
REMARK  169  A    between atoms: _406  and  _407
REMARK  170  A    between atoms: _407  and  _408
REMARK  171  A    between atoms: _408  and  _409
REMARK  172  A    between atoms: _409  and  _410
REMARK  173  A    between atoms: _414  and  _416
REMARK  174  A    between atoms: _416  and  _417
REMARK  175  A    between atoms: _416  and  _419
REMARK  176  A    between atoms: _419  and  _420
REMARK  177  A    between atoms: _420  and  _421
REMARK  178  A    between atoms: _423  and  _425
REMARK  179  A    between atoms: _425  and  _426
REMARK  180  A    between atoms: _425  and  _428
REMARK  181  A    between atoms: _428  and  _429
REMARK  182  A    between atoms: _432  and  _434
REMARK  183  A    between atoms: _434  and  _435
REMARK  184  A    between atoms: _437  and  _439
REMARK  185  A    between atoms: _439  and  _440
REMARK  186  A    between atoms: _442  and  _444
REMARK  187  A    between atoms: _444  and  _445
REMARK  188  A    between atoms: _444  and  _447
REMARK  189  A    between atoms: _447  and  _448
REMARK  190  A    between atoms: _451  and  _453
REMARK  191  A    between atoms: _453  and  _454
REMARK  192  A    between atoms: _456  and  _458
REMARK  193  A    between atoms: _458  and  _459
REMARK  194  A    between atoms: _461  and  _463
REMARK  195  A    between atoms: _463  and  _464
REMARK  196  A    between atoms: _463  and  _466
REMARK  197  A    between atoms: _466  and  _467
REMARK  198  A    between atoms: _473  and  _475
REMARK  199  A    between atoms: _475  and  _476
REMARK  200  A    between atoms: _475  and  _478
REMARK  201  A    between atoms: _478  and  _479
REMARK  202  A    between atoms: _482  and  _484
REMARK  203  A    between atoms: _484  and  _485
REMARK  204  A    between atoms: _484  and  _487
REMARK  205  A    between atoms: _490  and  _492
REMARK  206  A    between atoms: _492  and  _493
REMARK  207  A    between atoms: _492  and  _495
REMARK  208  A    between atoms: _495  and  _496
REMARK  209  A    between atoms: _499  and  _501
REMARK  210  A    between atoms: _501  and  _502
REMARK  211  A    between atoms: _501  and  _504
REMARK  212  A    between atoms: _504  and  _505
REMARK  213  A    between atoms: _509  and  _510
REMARK  214  A    between atoms: _515  and  _517
REMARK  215  A    between atoms: _517  and  _518
REMARK  216  A    between atoms: _517  and  _520
REMARK  217  A    between atoms: _520  and  _521
REMARK  218  A    between atoms: _524  and  _526
REMARK  219  A    between atoms: _526  and  _527
REMARK  220  A    between atoms: _526  and  _529
REMARK  221  A    between atoms: _529  and  _530
REMARK  222  A    between atoms: _535  and  _537
REMARK  223  A    between atoms: _537  and  _538
REMARK  224  A    between atoms: _537  and  _540
REMARK  225  A    between atoms: _543  and  _545
REMARK  226  A    between atoms: _545  and  _546
REMARK  227  A    between atoms: _545  and  _548
REMARK  228  A    between atoms: _548  and  _549
REMARK  229  A    between atoms: _552  and  _554
REMARK  230  A    between atoms: _554  and  _555
REMARK  231  A    between atoms: _557  and  _559
REMARK  232  A    between atoms: _559  and  _560
REMARK  233  A    between atoms: _559  and  _562
REMARK  234  A    between atoms: _562  and  _563
REMARK  235  A    between atoms: _563  and  _564
REMARK  236  A    between atoms: _564  and  _565
REMARK  237  A    between atoms: _574  and  _576
REMARK  238  A    between atoms: _576  and  _577
REMARK  239  A    between atoms: _576  and  _579
REMARK  240  A    between atoms: _579  and  _580
REMARK                            x       y       z     vdW  Elec       q    Type
REMARK                         _______ _______ _______ _____ _____    ______ ____
ROOT
ATOM      1  O   HOH     1      18.305  14.656   6.089  0.00  0.00    +0.000 OA
ENDROOT
TORSDOF 0
REMARK  Name = ../refined-set-2016/2wl0/2wl0_pocket.pdb
REMARK  240 active torsions:
REMARK  status: ('A' for Active; 'I' for Inactive)
REMARK    1  A    between atoms: _1  and  _3
REMARK    2  A    between atoms: _3  and  _4
REMARK    3  A    between atoms: _3  and  _6
REMARK    4  A    between atoms: _6  and  _7
REMARK    5  A    between atoms: _7  and  _8
REMARK    6  A    between atoms: _8  and  _9
REMARK    7  A    between atoms: _18  and  _20
REMARK    8  A    between atoms: _20  and  _21
REMARK    9  A    between atoms: _20  and  _23
REMARK   10  A    between atoms: _23  and  _24
REMARK   11  A    between atoms: _27  and  _29
REMARK   12  A    between atoms: _29  and  _30
REMARK   13  A    between atoms: _29  and  _32
REMARK   14  A    between atoms: _32  and  _33
REMARK   15  A    between atoms: _36  and  _38
REMARK   16  A    between atoms: _38  and  _39
REMARK   17  A    between atoms: _38  and  _41
REMARK   18  A    between atoms: _41  and  _42
REMARK   19  A    between atoms: _45  and  _47
REMARK   20  A    between atoms: _47  and  _48
REMARK   21  A    between atoms: _47  and  _50
REMARK   22  A    between atoms: _50  and  _51
REMARK   23  A    between atoms: _54  and  _56
REMARK   24  A    between atoms: _56  and  _57
REMARK   25  A    between atoms: _59  and  _61
REMARK   26  A    between atoms: _61  and  _62
REMARK   27  A    between atoms: _65  and  _67
REMARK   28  A    between atoms: _67  and  _68
REMARK   29  A    between atoms: _67  and  _70
REMARK   30  A    between atoms: _70  and  _71
REMARK   31  A    between atoms: _74  and  _76
REMARK   32  A    between atoms: _76  and  _77
REMARK   33  A    between atoms: _76  and  _79
REMARK   34  A    between atoms: _79  and  _80
REMARK   35  A    between atoms: _83  and  _85
REMARK   36  A    between atoms: _85  and  _86
REMARK   37  A    between atoms: _85  and  _88
REMARK   38  A    between atoms: _88  and  _89
REMARK   39  A    between atoms: _92  and  _94
REMARK   40  A    between atoms: _94  and  _95
REMARK   41  A    between atoms: _94  and  _97
REMARK   42  A    between atoms: _100  and  _102
REMARK   43  A    between atoms: _102  and  _103
REMARK   44  A    between atoms: _102  and  _105
REMARK   45  A    between atoms: _105  and  _106
REMARK   46  A    between atoms: _109  and  _111
REMARK   47  A    between atoms: _111  and  _112
REMARK   48  A    between atoms: _111  and  _114
REMARK   49  A    between atoms: _114  and  _115
REMARK   50  A    between atoms: _115  and  _116
REMARK   51  A    between atoms: _116  and  _117
REMARK   52  A    between atoms: _117  and  _118
REMARK   53  A    between atoms: _122  and  _124
REMARK   54  A    between atoms: _124  and  _125
REMARK   55  A    between atoms: _124  and  _127
REMARK   56  A    between atoms: _127  and  _128
REMARK   57  A    between atoms: _128  and  _129
REMARK   58  A    between atoms: _131  and  _133
REMARK   59  A    between atoms: _133  and  _134
REMARK   60  A    between atoms: _133  and  _136
REMARK   61  A    between atoms: _136  and  _137
REMARK   62  A    between atoms: _140  and  _142
REMARK   63  A    between atoms: _142  and  _143
REMARK   64  A    between atoms: _145  and  _147
REMARK   65  A    between atoms: _147  and  _148
REMARK   66  A    between atoms: _150  and  _152
REMARK   67  A    between atoms: _152  and  _153
REMARK   68  A    between atoms: _152  and  _155
REMARK   69  A    between atoms: _155  and  _156
REMARK   70  A    between atoms: _159  and  _161
REMARK   71  A    between atoms: _161  and  _162
REMARK   72  A    between atoms: _164  and  _166
REMARK   73  A    between atoms: _166  and  _167
REMARK   74  A    between atoms: _169  and  _171
REMARK   75  A    between atoms: _171  and  _172
REMARK   76  A    between atoms: _171  and  _174
REMARK   77  A    between atoms: _174  and  _175
REMARK   78  A    between atoms: _181  and  _183
REMARK   79  A    between atoms: _183  and  _184
REMARK   80  A    between atoms: _183  and  _186
REMARK   81  A    between atoms: _186  and  _187
REMARK   82  A    between atoms: _190  and  _192
REMARK   83  A    between atoms: _192  and  _193
REMARK   84  A    between atoms: _192  and  _195
REMARK   85  A    between atoms: _198  and  _200
REMARK   86  A    between atoms: _200  and  _201
REMARK   87  A    between atoms: _200  and  _203
REMARK   88  A    between atoms: _203  and  _204
REMARK   89  A    between atoms: _207  and  _209
REMARK   90  A    between atoms: _209  and  _210
REMARK   91  A    between atoms: _209  and  _212
REMARK   92  A    between atoms: _212  and  _213
REMARK   93  A    between atoms: _217  and  _218
REMARK   94  A    between atoms: _223  and  _225
REMARK   95  A    between atoms: _225  and  _226
REMARK   96  A    between atoms: _225  and  _228
REMARK   97  A    between atoms: _228  and  _229
REMARK   98  A    between atoms: _232  and  _234
REMARK   99  A    between atoms: _234  and  _235
REMARK  100  A    between atoms: _234  and  _237
REMARK  101  A    between atoms: _237  and  _238
REMARK  102  A    between atoms: _243  and  _245
REMARK  103  A    between atoms: _245  and  _246
REMARK  104  A    between atoms: _245  and  _248
REMARK  105  A    between atoms: _251  and  _253
REMARK  106  A    between atoms: _253  and  _254
REMARK  107  A    between atoms: _253  and  _256
REMARK  108  A    between atoms: _256  and  _257
REMARK  109  A    between atoms: _260  and  _262
REMARK  110  A    between atoms: _262  and  _263
REMARK  111  A    between atoms: _265  and  _267
REMARK  112  A    between atoms: _267  and  _268
REMARK  113  A    between atoms: _267  and  _270
REMARK  114  A    between atoms: _270  and  _271
REMARK  115  A    between atoms: _271  and  _272
REMARK  116  A    between atoms: _272  and  _273
REMARK  117  A    between atoms: _282  and  _284
REMARK  118  A    between atoms: _284  and  _285
REMARK  119  A    between atoms: _284  and  _287
REMARK  120  A    between atoms: _287  and  _288
REMARK  121  A    between atoms: _293  and  _295
REMARK  122  A    between atoms: _295  and  _296
REMARK  123  A    between atoms: _295  and  _298
REMARK  124  A    between atoms: _298  and  _299
REMARK  125  A    between atoms: _299  and  _300
REMARK  126  A    between atoms: _300  and  _301
REMARK  127  A    between atoms: _310  and  _312
REMARK  128  A    between atoms: _312  and  _313
REMARK  129  A    between atoms: _312  and  _315
REMARK  130  A    between atoms: _315  and  _316
REMARK  131  A    between atoms: _319  and  _321
REMARK  132  A    between atoms: _321  and  _322
REMARK  133  A    between atoms: _321  and  _324
REMARK  134  A    between atoms: _324  and  _325
REMARK  135  A    between atoms: _328  and  _330
REMARK  136  A    between atoms: _330  and  _331
REMARK  137  A    between atoms: _330  and  _333
REMARK  138  A    between atoms: _333  and  _334
REMARK  139  A    between atoms: _337  and  _339
REMARK  140  A    between atoms: _339  and  _340
REMARK  141  A    between atoms: _339  and  _342
REMARK  142  A    between atoms: _342  and  _343
REMARK  143  A    between atoms: _346  and  _348
REMARK  144  A    between atoms: _348  and  _349
REMARK  145  A    between atoms: _348  and  _351
REMARK  146  A    between atoms: _351  and  _352
REMARK  147  A    between atoms: _355  and  _357
REMARK  148  A    between atoms: _357  and  _358
REMARK  149  A    between atoms: _360  and  _362
REMARK  150  A    between atoms: _362  and  _363
REMARK  151  A    between atoms: _366  and  _368
REMARK  152  A    between atoms: _368  and  _369
REMARK  153  A    between atoms: _368  and  _371
REMARK  154  A    between atoms: _371  and  _372
REMARK  155  A    between atoms: _375  and  _377
REMARK  156  A    between atoms: _377  and  _378
REMARK  157  A    between atoms: _377  and  _380
REMARK  158  A    between atoms: _380  and  _381
REMARK  159  A    between atoms: _384  and  _386
REMARK  160  A    between atoms: _386  and  _387
REMARK  161  A    between atoms: _386  and  _389
REMARK  162  A    between atoms: _389  and  _390
REMARK  163  A    between atoms: _393  and  _395
REMARK  164  A    between atoms: _395  and  _396
REMARK  165  A    between atoms: _395  and  _398
REMARK  166  A    between atoms: _401  and  _403
REMARK  167  A    between atoms: _403  and  _404
REMARK  168  A    between atoms: _403  and  _406
REMARK  169  A    between atoms: _406  and  _407
REMARK  170  A    between atoms: _407  and  _408
REMARK  171  A    between atoms: _408  and  _409
REMARK  172  A    between atoms: _409  and  _410
REMARK  173  A    between atoms: _414  and  _416
REMARK  174  A    between atoms: _416  and  _417
REMARK  175  A    between atoms: _416  and  _419
REMARK  176  A    between atoms: _419  and  _420
REMARK  177  A    between atoms: _420  and  _421
REMARK  178  A    between atoms: _423  and  _425
REMARK  179  A    between atoms: _425  and  _426
REMARK  180  A    between atoms: _425  and  _428
REMARK  181  A    between atoms: _428  and  _429
REMARK  182  A    between atoms: _432  and  _434
REMARK  183  A    between atoms: _434  and  _435
REMARK  184  A    between atoms: _437  and  _439
REMARK  185  A    between atoms: _439  and  _440
REMARK  186  A    between atoms: _442  and  _444
REMARK  187  A    between atoms: _444  and  _445
REMARK  188  A    between atoms: _444  and  _447
REMARK  189  A    between atoms: _447  and  _448
REMARK  190  A    between atoms: _451  and  _453
REMARK  191  A    between atoms: _453  and  _454
REMARK  192  A    between atoms: _456  and  _458
REMARK  193  A    between atoms: _458  and  _459
REMARK  194  A    between atoms: _461  and  _463
REMARK  195  A    between atoms: _463  and  _464
REMARK  196  A    between atoms: _463  and  _466
REMARK  197  A    between atoms: _466  and  _467
REMARK  198  A    between atoms: _473  and  _475
REMARK  199  A    between atoms: _475  and  _476
REMARK  200  A    between atoms: _475  and  _478
REMARK  201  A    between atoms: _478  and  _479
REMARK  202  A    between atoms: _482  and  _484
REMARK  203  A    between atoms: _484  and  _485
REMARK  204  A    between atoms: _484  and  _487
REMARK  205  A    between atoms: _490  and  _492
REMARK  206  A    between atoms: _492  and  _493
REMARK  207  A    between atoms: _492  and  _495
REMARK  208  A    between atoms: _495  and  _496
REMARK  209  A    between atoms: _499  and  _501
REMARK  210  A    between atoms: _501  and  _502
REMARK  211  A    between atoms: _501  and  _504
REMARK  212  A    between atoms: _504  and  _505
REMARK  213  A    between atoms: _509  and  _510
REMARK  214  A    between atoms: _515  and  _517
REMARK  215  A    between atoms: _517  and  _518
REMARK  216  A    between atoms: _517  and  _520
REMARK  217  A    between atoms: _520  and  _521
REMARK  218  A    between atoms: _524  and  _526
REMARK  219  A    between atoms: _526  and  _527
REMARK  220  A    between atoms: _526  and  _529
REMARK  221  A    between atoms: _529  and  _530
REMARK  222  A    between atoms: _535  and  _537
REMARK  223  A    between atoms: _537  and  _538
REMARK  224  A    between atoms: _537  and  _540
REMARK  225  A    between atoms: _543  and  _545
REMARK  226  A    between atoms: _545  and  _546
REMARK  227  A    between atoms: _545  and  _548
REMARK  228  A    between atoms: _548  and  _549
REMARK  229  A    between atoms: _552  and  _554
REMARK  230  A    between atoms: _554  and  _555
REMARK  231  A    between atoms: _557  and  _559
REMARK  232  A    between atoms: _559  and  _560
REMARK  233  A    between atoms: _559  and  _562
REMARK  234  A    between atoms: _562  and  _563
REMARK  235  A    between atoms: _563  and  _564
REMARK  236  A    between atoms: _564  and  _565
REMARK  237  A    between atoms: _574  and  _576
REMARK  238  A    between atoms: _576  and  _577
REMARK  239  A    between atoms: _576  and  _579
REMARK  240  A    between atoms: _579  and  _580
REMARK                            x       y       z     vdW  Elec       q    Type
REMARK                         _______ _______ _______ _____ _____    ______ ____
ROOT
ATOM      1  O   HOH     1      13.380  15.492  11.264  0.00  0.00    +0.000 OA
ENDROOT
TORSDOF 0
REMARK  Name = ../refined-set-2016/2wl0/2wl0_pocket.pdb
REMARK  240 active torsions:
REMARK  status: ('A' for Active; 'I' for Inactive)
REMARK    1  A    between atoms: _1  and  _3
REMARK    2  A    between atoms: _3  and  _4
REMARK    3  A    between atoms: _3  and  _6
REMARK    4  A    between atoms: _6  and  _7
REMARK    5  A    between atoms: _7  and  _8
REMARK    6  A    between atoms: _8  and  _9
REMARK    7  A    between atoms: _18  and  _20
REMARK    8  A    between atoms: _20  and  _21
REMARK    9  A    between atoms: _20  and  _23
REMARK   10  A    between atoms: _23  and  _24
REMARK   11  A    between atoms: _27  and  _29
REMARK   12  A    between atoms: _29  and  _30
REMARK   13  A    between atoms: _29  and  _32
REMARK   14  A    between atoms: _32  and  _33
REMARK   15  A    between atoms: _36  and  _38
REMARK   16  A    between atoms: _38  and  _39
REMARK   17  A    between atoms: _38  and  _41
REMARK   18  A    between atoms: _41  and  _42
REMARK   19  A    between atoms: _45  and  _47
REMARK   20  A    between atoms: _47  and  _48
REMARK   21  A    between atoms: _47  and  _50
REMARK   22  A    between atoms: _50  and  _51
REMARK   23  A    between atoms: _54  and  _56
REMARK   24  A    between atoms: _56  and  _57
REMARK   25  A    between atoms: _59  and  _61
REMARK   26  A    between atoms: _61  and  _62
REMARK   27  A    between atoms: _65  and  _67
REMARK   28  A    between atoms: _67  and  _68
REMARK   29  A    between atoms: _67  and  _70
REMARK   30  A    between atoms: _70  and  _71
REMARK   31  A    between atoms: _74  and  _76
REMARK   32  A    between atoms: _76  and  _77
REMARK   33  A    between atoms: _76  and  _79
REMARK   34  A    between atoms: _79  and  _80
REMARK   35  A    between atoms: _83  and  _85
REMARK   36  A    between atoms: _85  and  _86
REMARK   37  A    between atoms: _85  and  _88
REMARK   38  A    between atoms: _88  and  _89
REMARK   39  A    between atoms: _92  and  _94
REMARK   40  A    between atoms: _94  and  _95
REMARK   41  A    between atoms: _94  and  _97
REMARK   42  A    between atoms: _100  and  _102
REMARK   43  A    between atoms: _102  and  _103
REMARK   44  A    between atoms: _102  and  _105
REMARK   45  A    between atoms: _105  and  _106
REMARK   46  A    between atoms: _109  and  _111
REMARK   47  A    between atoms: _111  and  _112
REMARK   48  A    between atoms: _111  and  _114
REMARK   49  A    between atoms: _114  and  _115
REMARK   50  A    between atoms: _115  and  _116
REMARK   51  A    between atoms: _116  and  _117
REMARK   52  A    between atoms: _117  and  _118
REMARK   53  A    between atoms: _122  and  _124
REMARK   54  A    between atoms: _124  and  _125
REMARK   55  A    between atoms: _124  and  _127
REMARK   56  A    between atoms: _127  and  _128
REMARK   57  A    between atoms: _128  and  _129
REMARK   58  A    between atoms: _131  and  _133
REMARK   59  A    between atoms: _133  and  _134
REMARK   60  A    between atoms: _133  and  _136
REMARK   61  A    between atoms: _136  and  _137
REMARK   62  A    between atoms: _140  and  _142
REMARK   63  A    between atoms: _142  and  _143
REMARK   64  A    between atoms: _145  and  _147
REMARK   65  A    between atoms: _147  and  _148
REMARK   66  A    between atoms: _150  and  _152
REMARK   67  A    between atoms: _152  and  _153
REMARK   68  A    between atoms: _152  and  _155
REMARK   69  A    between atoms: _155  and  _156
REMARK   70  A    between atoms: _159  and  _161
REMARK   71  A    between atoms: _161  and  _162
REMARK   72  A    between atoms: _164  and  _166
REMARK   73  A    between atoms: _166  and  _167
REMARK   74  A    between atoms: _169  and  _171
REMARK   75  A    between atoms: _171  and  _172
REMARK   76  A    between atoms: _171  and  _174
REMARK   77  A    between atoms: _174  and  _175
REMARK   78  A    between atoms: _181  and  _183
REMARK   79  A    between atoms: _183  and  _184
REMARK   80  A    between atoms: _183  and  _186
REMARK   81  A    between atoms: _186  and  _187
REMARK   82  A    between atoms: _190  and  _192
REMARK   83  A    between atoms: _192  and  _193
REMARK   84  A    between atoms: _192  and  _195
REMARK   85  A    between atoms: _198  and  _200
REMARK   86  A    between atoms: _200  and  _201
REMARK   87  A    between atoms: _200  and  _203
REMARK   88  A    between atoms: _203  and  _204
REMARK   89  A    between atoms: _207  and  _209
REMARK   90  A    between atoms: _209  and  _210
REMARK   91  A    between atoms: _209  and  _212
REMARK   92  A    between atoms: _212  and  _213
REMARK   93  A    between atoms: _217  and  _218
REMARK   94  A    between atoms: _223  and  _225
REMARK   95  A    between atoms: _225  and  _226
REMARK   96  A    between atoms: _225  and  _228
REMARK   97  A    between atoms: _228  and  _229
REMARK   98  A    between atoms: _232  and  _234
REMARK   99  A    between atoms: _234  and  _235
REMARK  100  A    between atoms: _234  and  _237
REMARK  101  A    between atoms: _237  and  _238
REMARK  102  A    between atoms: _243  and  _245
REMARK  103  A    between atoms: _245  and  _246
REMARK  104  A    between atoms: _245  and  _248
REMARK  105  A    between atoms: _251  and  _253
REMARK  106  A    between atoms: _253  and  _254
REMARK  107  A    between atoms: _253  and  _256
REMARK  108  A    between atoms: _256  and  _257
REMARK  109  A    between atoms: _260  and  _262
REMARK  110  A    between atoms: _262  and  _263
REMARK  111  A    between atoms: _265  and  _267
REMARK  112  A    between atoms: _267  and  _268
REMARK  113  A    between atoms: _267  and  _270
REMARK  114  A    between atoms: _270  and  _271
REMARK  115  A    between atoms: _271  and  _272
REMARK  116  A    between atoms: _272  and  _273
REMARK  117  A    between atoms: _282  and  _284
REMARK  118  A    between atoms: _284  and  _285
REMARK  119  A    between atoms: _284  and  _287
REMARK  120  A    between atoms: _287  and  _288
REMARK  121  A    between atoms: _293  and  _295
REMARK  122  A    between atoms: _295  and  _296
REMARK  123  A    between atoms: _295  and  _298
REMARK  124  A    between atoms: _298  and  _299
REMARK  125  A    between atoms: _299  and  _300
REMARK  126  A    between atoms: _300  and  _301
REMARK  127  A    between atoms: _310  and  _312
REMARK  128  A    between atoms: _312  and  _313
REMARK  129  A    between atoms: _312  and  _315
REMARK  130  A    between atoms: _315  and  _316
REMARK  131  A    between atoms: _319  and  _321
REMARK  132  A    between atoms: _321  and  _322
REMARK  133  A    between atoms: _321  and  _324
REMARK  134  A    between atoms: _324  and  _325
REMARK  135  A    between atoms: _328  and  _330
REMARK  136  A    between atoms: _330  and  _331
REMARK  137  A    between atoms: _330  and  _333
REMARK  138  A    between atoms: _333  and  _334
REMARK  139  A    between atoms: _337  and  _339
REMARK  140  A    between atoms: _339  and  _340
REMARK  141  A    between atoms: _339  and  _342
REMARK  142  A    between atoms: _342  and  _343
REMARK  143  A    between atoms: _346  and  _348
REMARK  144  A    between atoms: _348  and  _349
REMARK  145  A    between atoms: _348  and  _351
REMARK  146  A    between atoms: _351  and  _352
REMARK  147  A    between atoms: _355  and  _357
REMARK  148  A    between atoms: _357  and  _358
REMARK  149  A    between atoms: _360  and  _362
REMARK  150  A    between atoms: _362  and  _363
REMARK  151  A    between atoms: _366  and  _368
REMARK  152  A    between atoms: _368  and  _369
REMARK  153  A    between atoms: _368  and  _371
REMARK  154  A    between atoms: _371  and  _372
REMARK  155  A    between atoms: _375  and  _377
REMARK  156  A    between atoms: _377  and  _378
REMARK  157  A    between atoms: _377  and  _380
REMARK  158  A    between atoms: _380  and  _381
REMARK  159  A    between atoms: _384  and  _386
REMARK  160  A    between atoms: _386  and  _387
REMARK  161  A    between atoms: _386  and  _389
REMARK  162  A    between atoms: _389  and  _390
REMARK  163  A    between atoms: _393  and  _395
REMARK  164  A    between atoms: _395  and  _396
REMARK  165  A    between atoms: _395  and  _398
REMARK  166  A    between atoms: _401  and  _403
REMARK  167  A    between atoms: _403  and  _404
REMARK  168  A    between atoms: _403  and  _406
REMARK  169  A    between atoms: _406  and  _407
REMARK  170  A    between atoms: _407  and  _408
REMARK  171  A    between atoms: _408  and  _409
REMARK  172  A    between atoms: _409  and  _410
REMARK  173  A    between atoms: _414  and  _416
REMARK  174  A    between atoms: _416  and  _417
REMARK  175  A    between atoms: _416  and  _419
REMARK  176  A    between atoms: _419  and  _420
REMARK  177  A    between atoms: _420  and  _421
REMARK  178  A    between atoms: _423  and  _425
REMARK  179  A    between atoms: _425  and  _426
REMARK  180  A    between atoms: _425  and  _428
REMARK  181  A    between atoms: _428  and  _429
REMARK  182  A    between atoms: _432  and  _434
REMARK  183  A    between atoms: _434  and  _435
REMARK  184  A    between atoms: _437  and  _439
REMARK  185  A    between atoms: _439  and  _440
REMARK  186  A    between atoms: _442  and  _444
REMARK  187  A    between atoms: _444  and  _445
REMARK  188  A    between atoms: _444  and  _447
REMARK  189  A    between atoms: _447  and  _448
REMARK  190  A    between atoms: _451  and  _453
REMARK  191  A    between atoms: _453  and  _454
REMARK  192  A    between atoms: _456  and  _458
REMARK  193  A    between atoms: _458  and  _459
REMARK  194  A    between atoms: _461  and  _463
REMARK  195  A    between atoms: _463  and  _464
REMARK  196  A    between atoms: _463  and  _466
REMARK  197  A    between atoms: _466  and  _467
REMARK  198  A    between atoms: _473  and  _475
REMARK  199  A    between atoms: _475  and  _476
REMARK  200  A    between atoms: _475  and  _478
REMARK  201  A    between atoms: _478  and  _479
REMARK  202  A    between atoms: _482  and  _484
REMARK  203  A    between atoms: _484  and  _485
REMARK  204  A    between atoms: _484  and  _487
REMARK  205  A    between atoms: _490  and  _492
REMARK  206  A    between atoms: _492  and  _493
REMARK  207  A    between atoms: _492  and  _495
REMARK  208  A    between atoms: _495  and  _496
REMARK  209  A    between atoms: _499  and  _501
REMARK  210  A    between atoms: _501  and  _502
REMARK  211  A    between atoms: _501  and  _504
REMARK  212  A    between atoms: _504  and  _505
REMARK  213  A    between atoms: _509  and  _510
REMARK  214  A    between atoms: _515  and  _517
REMARK  215  A    between atoms: _517  and  _518
REMARK  216  A    between atoms: _517  and  _520
REMARK  217  A    between atoms: _520  and  _521
REMARK  218  A    between atoms: _524  and  _526
REMARK  219  A    between atoms: _526  and  _527
REMARK  220  A    between atoms: _526  and  _529
REMARK  221  A    between atoms: _529  and  _530
REMARK  222  A    between atoms: _535  and  _537
REMARK  223  A    between atoms: _537  and  _538
REMARK  224  A    between atoms: _537  and  _540
REMARK  225  A    between atoms: _543  and  _545
REMARK  226  A    between atoms: _545  and  _546
REMARK  227  A    between atoms: _545  and  _548
REMARK  228  A    between atoms: _548  and  _549
REMARK  229  A    between atoms: _552  and  _554
REMARK  230  A    between atoms: _554  and  _555
REMARK  231  A    between atoms: _557  and  _559
REMARK  232  A    between atoms: _559  and  _560
REMARK  233  A    between atoms: _559  and  _562
REMARK  234  A    between atoms: _562  and  _563
REMARK  235  A    between atoms: _563  and  _564
REMARK  236  A    between atoms: _564  and  _565
REMARK  237  A    between atoms: _574  and  _576
REMARK  238  A    between atoms: _576  and  _577
REMARK  239  A    between atoms: _576  and  _579
REMARK  240  A    between atoms: _579  and  _580
REMARK                            x       y       z     vdW  Elec       q    Type
REMARK                         _______ _______ _______ _____ _____    ______ ____
ROOT
ATOM      1  O   HOH     1       8.634  25.060  -4.384  0.00  0.00    +0.000 OA
ENDROOT
TORSDOF 0
