REMARK  Name = ../refined-set-2016/1hi5/1hi5_pocket.pdb
REMARK  143 active torsions:
REMARK  status: ('A' for Active; 'I' for Inactive)
REMARK    1  A    between atoms: _1  and  _5
REMARK    2  A    between atoms: _5  and  _6
REMARK    3  A    between atoms: _5  and  _8
REMARK    4  A    between atoms: _8  and  _9
REMARK    5  A    between atoms: _9  and  _10
REMARK    6  A    between atoms: _12  and  _14
REMARK    7  A    between atoms: _14  and  _15
REMARK    8  A    between atoms: _14  and  _17
REMARK    9  A    between atoms: _17  and  _18
REMARK   10  A    between atoms: _18  and  _19
REMARK   11  A    between atoms: _19  and  _20
REMARK   12  A    between atoms: _20  and  _21
REMARK   13  A    between atoms: _25  and  _27
REMARK   14  A    between atoms: _27  and  _28
REMARK   15  A    between atoms: _27  and  _30
REMARK   16  A    between atoms: _30  and  _31
REMARK   17  A    between atoms: _41  and  _43
REMARK   18  A    between atoms: _43  and  _44
REMARK   19  A    between atoms: _43  and  _46
REMARK   20  A    between atoms: _46  and  _47
REMARK   21  A    between atoms: _57  and  _59
REMARK   22  A    between atoms: _59  and  _60
REMARK   23  A    between atoms: _59  and  _62
REMARK   24  A    between atoms: _62  and  _63
REMARK   25  A    between atoms: _69  and  _71
REMARK   26  A    between atoms: _71  and  _72
REMARK   27  A    between atoms: _71  and  _74
REMARK   28  A    between atoms: _74  and  _75
REMARK   29  A    between atoms: _75  and  _76
REMARK   30  A    between atoms: _81  and  _83
REMARK   31  A    between atoms: _83  and  _84
REMARK   32  A    between atoms: _83  and  _86
REMARK   33  A    between atoms: _86  and  _87
REMARK   34  A    between atoms: _92  and  _94
REMARK   35  A    between atoms: _94  and  _95
REMARK   36  A    between atoms: _94  and  _97
REMARK   37  A    between atoms: _97  and  _98
REMARK   38  A    between atoms: _98  and  _99
REMARK   39  A    between atoms: _101  and  _103
REMARK   40  A    between atoms: _103  and  _104
REMARK   41  A    between atoms: _103  and  _106
REMARK   42  A    between atoms: _106  and  _107
REMARK   43  A    between atoms: _110  and  _112
REMARK   44  A    between atoms: _112  and  _113
REMARK   45  A    between atoms: _112  and  _115
REMARK   46  A    between atoms: _115  and  _116
REMARK   47  A    between atoms: _116  and  _117
REMARK   48  A    between atoms: _122  and  _124
REMARK   49  A    between atoms: _124  and  _125
REMARK   50  A    between atoms: _124  and  _127
REMARK   51  A    between atoms: _127  and  _128
REMARK   52  A    between atoms: _128  and  _129
REMARK   53  A    between atoms: _129  and  _130
REMARK   54  A    between atoms: _139  and  _141
REMARK   55  A    between atoms: _141  and  _142
REMARK   56  A    between atoms: _141  and  _144
REMARK   57  A    between atoms: _146  and  _148
REMARK   58  A    between atoms: _148  and  _149
REMARK   59  A    between atoms: _148  and  _151
REMARK   60  A    between atoms: _151  and  _152
REMARK   61  A    between atoms: _152  and  _153
REMARK   62  A    between atoms: _153  and  _154
REMARK   63  A    between atoms: _154  and  _155
REMARK   64  A    between atoms: _159  and  _161
REMARK   65  A    between atoms: _161  and  _162
REMARK   66  A    between atoms: _161  and  _164
REMARK   67  A    between atoms: _164  and  _165
REMARK   68  A    between atoms: _170  and  _172
REMARK   69  A    between atoms: _172  and  _173
REMARK   70  A    between atoms: _172  and  _175
REMARK   71  A    between atoms: _175  and  _176
REMARK   72  A    between atoms: _176  and  _177
REMARK   73  A    between atoms: _182  and  _184
REMARK   74  A    between atoms: _184  and  _185
REMARK   75  A    between atoms: _184  and  _187
REMARK   76  A    between atoms: _187  and  _188
REMARK   77  A    between atoms: _193  and  _195
REMARK   78  A    between atoms: _195  and  _196
REMARK   79  A    between atoms: _195  and  _198
REMARK   80  A    between atoms: _198  and  _199
REMARK   81  A    between atoms: _202  and  _204
REMARK   82  A    between atoms: _204  and  _205
REMARK   83  A    between atoms: _204  and  _207
REMARK   84  A    between atoms: _207  and  _208
REMARK   85  A    between atoms: _210  and  _212
REMARK   86  A    between atoms: _212  and  _213
REMARK   87  A    between atoms: _212  and  _215
REMARK   88  A    between atoms: _215  and  _216
REMARK   89  A    between atoms: _221  and  _223
REMARK   90  A    between atoms: _223  and  _224
REMARK   91  A    between atoms: _223  and  _226
REMARK   92  A    between atoms: _228  and  _230
REMARK   93  A    between atoms: _230  and  _231
REMARK   94  A    between atoms: _230  and  _233
REMARK   95  A    between atoms: _233  and  _234
REMARK   96  A    between atoms: _239  and  _241
REMARK   97  A    between atoms: _241  and  _242
REMARK   98  A    between atoms: _241  and  _244
REMARK   99  A    between atoms: _244  and  _245
REMARK  100  A    between atoms: _248  and  _250
REMARK  101  A    between atoms: _250  and  _251
REMARK  102  A    between atoms: _250  and  _253
REMARK  103  A    between atoms: _253  and  _254
REMARK  104  A    between atoms: _259  and  _260
REMARK  105  A    between atoms: _262  and  _264
REMARK  106  A    between atoms: _264  and  _265
REMARK  107  A    between atoms: _264  and  _267
REMARK  108  A    between atoms: _267  and  _268
REMARK  109  A    between atoms: _268  and  _269
REMARK  110  A    between atoms: _271  and  _273
REMARK  111  A    between atoms: _273  and  _274
REMARK  112  A    between atoms: _273  and  _276
REMARK  113  A    between atoms: _276  and  _277
REMARK  114  A    between atoms: _280  and  _282
REMARK  115  A    between atoms: _282  and  _283
REMARK  116  A    between atoms: _282  and  _285
REMARK  117  A    between atoms: _288  and  _290
REMARK  118  A    between atoms: _290  and  _291
REMARK  119  A    between atoms: _294  and  _296
REMARK  120  A    between atoms: _296  and  _297
REMARK  121  A    between atoms: _296  and  _299
REMARK  122  A    between atoms: _302  and  _304
REMARK  123  A    between atoms: _304  and  _305
REMARK  124  A    between atoms: _304  and  _307
REMARK  125  A    between atoms: _307  and  _308
REMARK  126  A    between atoms: _313  and  _315
REMARK  127  A    between atoms: _315  and  _316
REMARK  128  A    between atoms: _315  and  _318
REMARK  129  A    between atoms: _318  and  _319
REMARK  130  A    between atoms: _322  and  _324
REMARK  131  A    between atoms: _324  and  _325
REMARK  132  A    between atoms: _324  and  _327
REMARK  133  A    between atoms: _327  and  _328
REMARK  134  A    between atoms: _331  and  _333
REMARK  135  A    between atoms: _333  and  _334
REMARK  136  A    between atoms: _333  and  _336
REMARK  137  A    between atoms: _336  and  _337
REMARK  138  A    between atoms: _337  and  _338
REMARK  139  A    between atoms: _338  and  _339
REMARK  140  A    between atoms: _348  and  _350
REMARK  141  A    between atoms: _350  and  _351
REMARK  142  A    between atoms: _350  and  _353
REMARK  143  A    between atoms: _353  and  _354
REMARK                            x       y       z     vdW  Elec       q    Type
REMARK                         _______ _______ _______ _____ _____    ______ ____
ROOT
ATOM      1  C   MET A   1       7.826  14.144  14.564  0.00  0.00    +0.202 C 
ATOM      2  N   LYS A   2       7.986  14.548  15.817  0.00  0.00    -0.301 N 
ATOM      3  H   LYS A   2       7.649  15.491  16.097  0.00  0.00    +0.150 HD
ATOM      4  O   MET A   1       8.138  13.016  14.168  0.00  0.00    -0.277 OA
ENDROOT
BRANCH   1   5
ATOM      5  CA  MET A   1       7.184  15.152  13.630  0.00  0.00    +0.014 C 
BRANCH   5   6
ATOM      6  N   MET A   1       7.144  14.627  12.230  0.00  0.00    +0.387 N 
ATOM      7  H1  MET A   1       6.590  13.747  12.207  0.00  0.00    -0.089 HD
ATOM      8  H2  MET A   1       8.113  14.437  11.905  0.00  0.00    -0.089 HD
ATOM      9  H3  MET A   1       6.701  15.333  11.609  0.00  0.00    -0.089 HD
ENDBRANCH   5   6
BRANCH   5  10
ATOM     10  CB  MET A   1       5.776  15.477  14.128  0.00  0.00    -0.001 C 
BRANCH  10  11
ATOM     11  CG  MET A   1       4.772  15.666  13.014  0.00  0.00    +0.056 C 
BRANCH  11  12
ATOM     12  SD  MET A   1       4.489  14.141  12.115  0.00  0.00    -0.139 S 
ATOM     13  CE  MET A   1       4.627  12.969  13.431  0.00  0.00    +0.069 C 
ENDBRANCH  11  12
ENDBRANCH  10  11
ENDBRANCH   5  10
ENDBRANCH   1   5
BRANCH   2  14
ATOM     14  CA  LYS A   2       8.621  13.700  16.800  0.00  0.00    +0.137 C 
BRANCH  14  15
ATOM     15  C   LYS A   2       7.731  13.328  17.975  0.00  0.00    +0.227 C 
ATOM     16  O   LYS A   2       7.064  14.183  18.540  0.00  0.00    -0.286 OA
ENDBRANCH  14  15
BRANCH  14  17
ATOM     17  CB  LYS A   2       9.879  14.418  17.301  0.00  0.00    +0.028 C 
BRANCH  17  18
ATOM     18  CG  LYS A   2      10.462  13.909  18.602  0.00  0.00    -0.000 C 
BRANCH  18  19
ATOM     19  CD  LYS A   2      11.891  14.430  18.801  0.00  0.00    -0.024 C 
BRANCH  19  20
ATOM     20  CE  LYS A   2      11.916  15.736  19.584  0.00  0.00    -0.086 C 
BRANCH  20  21
ATOM     21  NZ  LYS A   2      11.199  15.614  20.883  0.00  0.00    +0.380 N 
ATOM     22  HZ1 LYS A   2      11.653  14.877  21.460  0.00  0.00    -0.089 HD
ATOM     23  HZ2 LYS A   2      11.238  16.523  21.386  0.00  0.00    -0.089 HD
ATOM     24  HZ3 LYS A   2      10.207  15.356  20.707  0.00  0.00    -0.089 HD
ENDBRANCH  20  21
ENDBRANCH  19  20
ENDBRANCH  18  19
ENDBRANCH  17  18
ENDBRANCH  14  17
ENDBRANCH   2  14
TORSDOF 12
REMARK  Name = ../refined-set-2016/1hi5/1hi5_pocket.pdb
REMARK  143 active torsions:
REMARK  status: ('A' for Active; 'I' for Inactive)
REMARK    1  A    between atoms: _1  and  _5
REMARK    2  A    between atoms: _5  and  _6
REMARK    3  A    between atoms: _5  and  _8
REMARK    4  A    between atoms: _8  and  _9
REMARK    5  A    between atoms: _9  and  _10
REMARK    6  A    between atoms: _12  and  _14
REMARK    7  A    between atoms: _14  and  _15
REMARK    8  A    between atoms: _14  and  _17
REMARK    9  A    between atoms: _17  and  _18
REMARK   10  A    between atoms: _18  and  _19
REMARK   11  A    between atoms: _19  and  _20
REMARK   12  A    between atoms: _20  and  _21
REMARK   13  A    between atoms: _25  and  _27
REMARK   14  A    between atoms: _27  and  _28
REMARK   15  A    between atoms: _27  and  _30
REMARK   16  A    between atoms: _30  and  _31
REMARK   17  A    between atoms: _41  and  _43
REMARK   18  A    between atoms: _43  and  _44
REMARK   19  A    between atoms: _43  and  _46
REMARK   20  A    between atoms: _46  and  _47
REMARK   21  A    between atoms: _57  and  _59
REMARK   22  A    between atoms: _59  and  _60
REMARK   23  A    between atoms: _59  and  _62
REMARK   24  A    between atoms: _62  and  _63
REMARK   25  A    between atoms: _69  and  _71
REMARK   26  A    between atoms: _71  and  _72
REMARK   27  A    between atoms: _71  and  _74
REMARK   28  A    between atoms: _74  and  _75
REMARK   29  A    between atoms: _75  and  _76
REMARK   30  A    between atoms: _81  and  _83
REMARK   31  A    between atoms: _83  and  _84
REMARK   32  A    between atoms: _83  and  _86
REMARK   33  A    between atoms: _86  and  _87
REMARK   34  A    between atoms: _92  and  _94
REMARK   35  A    between atoms: _94  and  _95
REMARK   36  A    between atoms: _94  and  _97
REMARK   37  A    between atoms: _97  and  _98
REMARK   38  A    between atoms: _98  and  _99
REMARK   39  A    between atoms: _101  and  _103
REMARK   40  A    between atoms: _103  and  _104
REMARK   41  A    between atoms: _103  and  _106
REMARK   42  A    between atoms: _106  and  _107
REMARK   43  A    between atoms: _110  and  _112
REMARK   44  A    between atoms: _112  and  _113
REMARK   45  A    between atoms: _112  and  _115
REMARK   46  A    between atoms: _115  and  _116
REMARK   47  A    between atoms: _116  and  _117
REMARK   48  A    between atoms: _122  and  _124
REMARK   49  A    between atoms: _124  and  _125
REMARK   50  A    between atoms: _124  and  _127
REMARK   51  A    between atoms: _127  and  _128
REMARK   52  A    between atoms: _128  and  _129
REMARK   53  A    between atoms: _129  and  _130
REMARK   54  A    between atoms: _139  and  _141
REMARK   55  A    between atoms: _141  and  _142
REMARK   56  A    between atoms: _141  and  _144
REMARK   57  A    between atoms: _146  and  _148
REMARK   58  A    between atoms: _148  and  _149
REMARK   59  A    between atoms: _148  and  _151
REMARK   60  A    between atoms: _151  and  _152
REMARK   61  A    between atoms: _152  and  _153
REMARK   62  A    between atoms: _153  and  _154
REMARK   63  A    between atoms: _154  and  _155
REMARK   64  A    between atoms: _159  and  _161
REMARK   65  A    between atoms: _161  and  _162
REMARK   66  A    between atoms: _161  and  _164
REMARK   67  A    between atoms: _164  and  _165
REMARK   68  A    between atoms: _170  and  _172
REMARK   69  A    between atoms: _172  and  _173
REMARK   70  A    between atoms: _172  and  _175
REMARK   71  A    between atoms: _175  and  _176
REMARK   72  A    between atoms: _176  and  _177
REMARK   73  A    between atoms: _182  and  _184
REMARK   74  A    between atoms: _184  and  _185
REMARK   75  A    between atoms: _184  and  _187
REMARK   76  A    between atoms: _187  and  _188
REMARK   77  A    between atoms: _193  and  _195
REMARK   78  A    between atoms: _195  and  _196
REMARK   79  A    between atoms: _195  and  _198
REMARK   80  A    between atoms: _198  and  _199
REMARK   81  A    between atoms: _202  and  _204
REMARK   82  A    between atoms: _204  and  _205
REMARK   83  A    between atoms: _204  and  _207
REMARK   84  A    between atoms: _207  and  _208
REMARK   85  A    between atoms: _210  and  _212
REMARK   86  A    between atoms: _212  and  _213
REMARK   87  A    between atoms: _212  and  _215
REMARK   88  A    between atoms: _215  and  _216
REMARK   89  A    between atoms: _221  and  _223
REMARK   90  A    between atoms: _223  and  _224
REMARK   91  A    between atoms: _223  and  _226
REMARK   92  A    between atoms: _228  and  _230
REMARK   93  A    between atoms: _230  and  _231
REMARK   94  A    between atoms: _230  and  _233
REMARK   95  A    between atoms: _233  and  _234
REMARK   96  A    between atoms: _239  and  _241
REMARK   97  A    between atoms: _241  and  _242
REMARK   98  A    between atoms: _241  and  _244
REMARK   99  A    between atoms: _244  and  _245
REMARK  100  A    between atoms: _248  and  _250
REMARK  101  A    between atoms: _250  and  _251
REMARK  102  A    between atoms: _250  and  _253
REMARK  103  A    between atoms: _253  and  _254
REMARK  104  A    between atoms: _259  and  _260
REMARK  105  A    between atoms: _262  and  _264
REMARK  106  A    between atoms: _264  and  _265
REMARK  107  A    between atoms: _264  and  _267
REMARK  108  A    between atoms: _267  and  _268
REMARK  109  A    between atoms: _268  and  _269
REMARK  110  A    between atoms: _271  and  _273
REMARK  111  A    between atoms: _273  and  _274
REMARK  112  A    between atoms: _273  and  _276
REMARK  113  A    between atoms: _276  and  _277
REMARK  114  A    between atoms: _280  and  _282
REMARK  115  A    between atoms: _282  and  _283
REMARK  116  A    between atoms: _282  and  _285
REMARK  117  A    between atoms: _288  and  _290
REMARK  118  A    between atoms: _290  and  _291
REMARK  119  A    between atoms: _294  and  _296
REMARK  120  A    between atoms: _296  and  _297
REMARK  121  A    between atoms: _296  and  _299
REMARK  122  A    between atoms: _302  and  _304
REMARK  123  A    between atoms: _304  and  _305
REMARK  124  A    between atoms: _304  and  _307
REMARK  125  A    between atoms: _307  and  _308
REMARK  126  A    between atoms: _313  and  _315
REMARK  127  A    between atoms: _315  and  _316
REMARK  128  A    between atoms: _315  and  _318
REMARK  129  A    between atoms: _318  and  _319
REMARK  130  A    between atoms: _322  and  _324
REMARK  131  A    between atoms: _324  and  _325
REMARK  132  A    between atoms: _324  and  _327
REMARK  133  A    between atoms: _327  and  _328
REMARK  134  A    between atoms: _331  and  _333
REMARK  135  A    between atoms: _333  and  _334
REMARK  136  A    between atoms: _333  and  _336
REMARK  137  A    between atoms: _336  and  _337
REMARK  138  A    between atoms: _337  and  _338
REMARK  139  A    between atoms: _338  and  _339
REMARK  140  A    between atoms: _348  and  _350
REMARK  141  A    between atoms: _350  and  _351
REMARK  142  A    between atoms: _350  and  _353
REMARK  143  A    between atoms: _353  and  _354
REMARK                            x       y       z     vdW  Elec       q    Type
REMARK                         _______ _______ _______ _____ _____    ______ ____
ROOT
ATOM      1  CG  TRP A   1      15.091  17.054  18.356  0.00  0.00    -0.002 A 
ATOM      2  CD1 TRP A   1      14.893  18.042  19.280  0.00  0.00    +0.068 A 
ATOM      3  NE1 TRP A   1      13.763  18.765  18.969  0.00  0.00    -0.352 N 
ATOM      4  HE1 TRP A   1      13.391  19.571  19.510  0.00  0.00    +0.166 HD
ATOM      5  CE2 TRP A   1      13.211  18.247  17.830  0.00  0.00    +0.056 A 
ATOM      6  CZ2 TRP A   1      12.070  18.638  17.129  0.00  0.00    +0.017 A 
ATOM      7  CH2 TRP A   1      11.746  17.926  16.003  0.00  0.00    +0.001 A 
ATOM      8  CZ3 TRP A   1      12.530  16.840  15.567  0.00  0.00    +0.000 A 
ATOM      9  CE3 TRP A   1      13.668  16.451  16.268  0.00  0.00    +0.001 A 
ATOM     10  CD2 TRP A   1      14.022  17.162  17.419  0.00  0.00    +0.013 A 
ENDROOT
BRANCH   1  11
ATOM     11  CB  TRP A   1      16.225  16.091  18.309  0.00  0.00    +0.053 C 
BRANCH  11  12
ATOM     12  CA  TRP A   1      15.813  14.700  18.782  0.00  0.00    +0.137 C 
BRANCH  12  13
ATOM     13  N   TRP A   1      15.588  14.694  20.226  0.00  0.00    -0.239 NA
ATOM     14  H   TRP A   1      15.796  15.532  20.806  0.00  0.00    +0.142 HD
ENDBRANCH  12  13
BRANCH  12  15
ATOM     15  C   TRP A   1      16.846  13.654  18.369  0.00  0.00    +0.224 C 
ATOM     16  O   TRP A   1      16.704  13.025  17.326  0.00  0.00    -0.287 OA
ENDBRANCH  12  15
ENDBRANCH  11  12
ENDBRANCH   1  11
TORSDOF 4
REMARK  Name = ../refined-set-2016/1hi5/1hi5_pocket.pdb
REMARK  143 active torsions:
REMARK  status: ('A' for Active; 'I' for Inactive)
REMARK    1  A    between atoms: _1  and  _5
REMARK    2  A    between atoms: _5  and  _6
REMARK    3  A    between atoms: _5  and  _8
REMARK    4  A    between atoms: _8  and  _9
REMARK    5  A    between atoms: _9  and  _10
REMARK    6  A    between atoms: _12  and  _14
REMARK    7  A    between atoms: _14  and  _15
REMARK    8  A    between atoms: _14  and  _17
REMARK    9  A    between atoms: _17  and  _18
REMARK   10  A    between atoms: _18  and  _19
REMARK   11  A    between atoms: _19  and  _20
REMARK   12  A    between atoms: _20  and  _21
REMARK   13  A    between atoms: _25  and  _27
REMARK   14  A    between atoms: _27  and  _28
REMARK   15  A    between atoms: _27  and  _30
REMARK   16  A    between atoms: _30  and  _31
REMARK   17  A    between atoms: _41  and  _43
REMARK   18  A    between atoms: _43  and  _44
REMARK   19  A    between atoms: _43  and  _46
REMARK   20  A    between atoms: _46  and  _47
REMARK   21  A    between atoms: _57  and  _59
REMARK   22  A    between atoms: _59  and  _60
REMARK   23  A    between atoms: _59  and  _62
REMARK   24  A    between atoms: _62  and  _63
REMARK   25  A    between atoms: _69  and  _71
REMARK   26  A    between atoms: _71  and  _72
REMARK   27  A    between atoms: _71  and  _74
REMARK   28  A    between atoms: _74  and  _75
REMARK   29  A    between atoms: _75  and  _76
REMARK   30  A    between atoms: _81  and  _83
REMARK   31  A    between atoms: _83  and  _84
REMARK   32  A    between atoms: _83  and  _86
REMARK   33  A    between atoms: _86  and  _87
REMARK   34  A    between atoms: _92  and  _94
REMARK   35  A    between atoms: _94  and  _95
REMARK   36  A    between atoms: _94  and  _97
REMARK   37  A    between atoms: _97  and  _98
REMARK   38  A    between atoms: _98  and  _99
REMARK   39  A    between atoms: _101  and  _103
REMARK   40  A    between atoms: _103  and  _104
REMARK   41  A    between atoms: _103  and  _106
REMARK   42  A    between atoms: _106  and  _107
REMARK   43  A    between atoms: _110  and  _112
REMARK   44  A    between atoms: _112  and  _113
REMARK   45  A    between atoms: _112  and  _115
REMARK   46  A    between atoms: _115  and  _116
REMARK   47  A    between atoms: _116  and  _117
REMARK   48  A    between atoms: _122  and  _124
REMARK   49  A    between atoms: _124  and  _125
REMARK   50  A    between atoms: _124  and  _127
REMARK   51  A    between atoms: _127  and  _128
REMARK   52  A    between atoms: _128  and  _129
REMARK   53  A    between atoms: _129  and  _130
REMARK   54  A    between atoms: _139  and  _141
REMARK   55  A    between atoms: _141  and  _142
REMARK   56  A    between atoms: _141  and  _144
REMARK   57  A    between atoms: _146  and  _148
REMARK   58  A    between atoms: _148  and  _149
REMARK   59  A    between atoms: _148  and  _151
REMARK   60  A    between atoms: _151  and  _152
REMARK   61  A    between atoms: _152  and  _153
REMARK   62  A    between atoms: _153  and  _154
REMARK   63  A    between atoms: _154  and  _155
REMARK   64  A    between atoms: _159  and  _161
REMARK   65  A    between atoms: _161  and  _162
REMARK   66  A    between atoms: _161  and  _164
REMARK   67  A    between atoms: _164  and  _165
REMARK   68  A    between atoms: _170  and  _172
REMARK   69  A    between atoms: _172  and  _173
REMARK   70  A    between atoms: _172  and  _175
REMARK   71  A    between atoms: _175  and  _176
REMARK   72  A    between atoms: _176  and  _177
REMARK   73  A    between atoms: _182  and  _184
REMARK   74  A    between atoms: _184  and  _185
REMARK   75  A    between atoms: _184  and  _187
REMARK   76  A    between atoms: _187  and  _188
REMARK   77  A    between atoms: _193  and  _195
REMARK   78  A    between atoms: _195  and  _196
REMARK   79  A    between atoms: _195  and  _198
REMARK   80  A    between atoms: _198  and  _199
REMARK   81  A    between atoms: _202  and  _204
REMARK   82  A    between atoms: _204  and  _205
REMARK   83  A    between atoms: _204  and  _207
REMARK   84  A    between atoms: _207  and  _208
REMARK   85  A    between atoms: _210  and  _212
REMARK   86  A    between atoms: _212  and  _213
REMARK   87  A    between atoms: _212  and  _215
REMARK   88  A    between atoms: _215  and  _216
REMARK   89  A    between atoms: _221  and  _223
REMARK   90  A    between atoms: _223  and  _224
REMARK   91  A    between atoms: _223  and  _226
REMARK   92  A    between atoms: _228  and  _230
REMARK   93  A    between atoms: _230  and  _231
REMARK   94  A    between atoms: _230  and  _233
REMARK   95  A    between atoms: _233  and  _234
REMARK   96  A    between atoms: _239  and  _241
REMARK   97  A    between atoms: _241  and  _242
REMARK   98  A    between atoms: _241  and  _244
REMARK   99  A    between atoms: _244  and  _245
REMARK  100  A    between atoms: _248  and  _250
REMARK  101  A    between atoms: _250  and  _251
REMARK  102  A    between atoms: _250  and  _253
REMARK  103  A    between atoms: _253  and  _254
REMARK  104  A    between atoms: _259  and  _260
REMARK  105  A    between atoms: _262  and  _264
REMARK  106  A    between atoms: _264  and  _265
REMARK  107  A    between atoms: _264  and  _267
REMARK  108  A    between atoms: _267  and  _268
REMARK  109  A    between atoms: _268  and  _269
REMARK  110  A    between atoms: _271  and  _273
REMARK  111  A    between atoms: _273  and  _274
REMARK  112  A    between atoms: _273  and  _276
REMARK  113  A    between atoms: _276  and  _277
REMARK  114  A    between atoms: _280  and  _282
REMARK  115  A    between atoms: _282  and  _283
REMARK  116  A    between atoms: _282  and  _285
REMARK  117  A    between atoms: _288  and  _290
REMARK  118  A    between atoms: _290  and  _291
REMARK  119  A    between atoms: _294  and  _296
REMARK  120  A    between atoms: _296  and  _297
REMARK  121  A    between atoms: _296  and  _299
REMARK  122  A    between atoms: _302  and  _304
REMARK  123  A    between atoms: _304  and  _305
REMARK  124  A    between atoms: _304  and  _307
REMARK  125  A    between atoms: _307  and  _308
REMARK  126  A    between atoms: _313  and  _315
REMARK  127  A    between atoms: _315  and  _316
REMARK  128  A    between atoms: _315  and  _318
REMARK  129  A    between atoms: _318  and  _319
REMARK  130  A    between atoms: _322  and  _324
REMARK  131  A    between atoms: _324  and  _325
REMARK  132  A    between atoms: _324  and  _327
REMARK  133  A    between atoms: _327  and  _328
REMARK  134  A    between atoms: _331  and  _333
REMARK  135  A    between atoms: _333  and  _334
REMARK  136  A    between atoms: _333  and  _336
REMARK  137  A    between atoms: _336  and  _337
REMARK  138  A    between atoms: _337  and  _338
REMARK  139  A    between atoms: _338  and  _339
REMARK  140  A    between atoms: _348  and  _350
REMARK  141  A    between atoms: _350  and  _351
REMARK  142  A    between atoms: _350  and  _353
REMARK  143  A    between atoms: _353  and  _354
REMARK                            x       y       z     vdW  Elec       q    Type
REMARK                         _______ _______ _______ _____ _____    ______ ____
ROOT
ATOM      1  CA  TRP A   1      14.371  10.097  17.154  0.00  0.00    +0.149 C 
ENDROOT
BRANCH   1   2
ATOM      2  C   TRP A   1      15.208   9.954  15.879  0.00  0.00    +0.239 C 
ATOM      3  N   PHE A   2      16.389  10.578  15.867  0.00  0.00    -0.298 N 
ATOM      4  H   PHE A   2      16.673  11.136  16.698  0.00  0.00    +0.150 HD
ATOM      5  O   TRP A   1      14.790   9.284  14.927  0.00  0.00    -0.274 OA
BRANCH   3   6
ATOM      6  CA  PHE A   2      17.296  10.501  14.721  0.00  0.00    +0.141 C 
BRANCH   6   7
ATOM      7  C   PHE A   2      17.790   9.061  14.599  0.00  0.00    +0.227 C 
ATOM      8  O   PHE A   2      17.877   8.486  13.491  0.00  0.00    -0.286 OA
ENDBRANCH   6   7
BRANCH   6   9
ATOM      9  CB  PHE A   2      18.502  11.432  14.912  0.00  0.00    +0.054 C 
BRANCH   9  10
ATOM     10  CG  PHE A   2      19.558  11.255  13.863  0.00  0.00    -0.020 A 
ATOM     11  CD2 PHE A   2      20.557  10.288  14.018  0.00  0.00    -0.004 A 
ATOM     12  CE2 PHE A   2      21.503  10.069  13.000  0.00  0.00    -0.000 A 
ATOM     13  CZ  PHE A   2      21.454  10.831  11.809  0.00  0.00    -0.000 A 
ATOM     14  CE1 PHE A   2      20.463  11.801  11.652  0.00  0.00    -0.000 A 
ATOM     15  CD1 PHE A   2      19.520  12.007  12.679  0.00  0.00    -0.004 A 
ENDBRANCH   9  10
ENDBRANCH   6   9
ENDBRANCH   3   6
ENDBRANCH   1   2
BRANCH   1  16
ATOM     16  N   TRP A   1      15.267  10.215  18.291  0.00  0.00    -0.238 NA
ATOM     17  H   TRP A   1      15.384  11.140  18.751  0.00  0.00    +0.142 HD
ENDBRANCH   1  16
BRANCH   1  18
ATOM     18  CB  TRP A   1      13.467  11.333  17.098  0.00  0.00    +0.054 C 
BRANCH  18  19
ATOM     19  CG  TRP A   1      12.436  11.288  16.022  0.00  0.00    -0.002 A 
ATOM     20  CD2 TRP A   1      11.459  10.256  15.795  0.00  0.00    +0.013 A 
ATOM     21  CE3 TRP A   1      11.146   9.047  16.440  0.00  0.00    +0.001 A 
ATOM     22  CZ3 TRP A   1      10.098   8.265  15.931  0.00  0.00    +0.000 A 
ATOM     23  CH2 TRP A   1       9.371   8.677  14.792  0.00  0.00    +0.001 A 
ATOM     24  CZ2 TRP A   1       9.660   9.856  14.145  0.00  0.00    +0.017 A 
ATOM     25  CE2 TRP A   1      10.708  10.639  14.658  0.00  0.00    +0.056 A 
ATOM     26  NE1 TRP A   1      11.205  11.842  14.227  0.00  0.00    -0.352 N 
ATOM     27  HE1 TRP A   1      10.855  12.380  13.409  0.00  0.00    +0.166 HD
ATOM     28  CD1 TRP A   1      12.240  12.224  15.049  0.00  0.00    +0.068 A 
ENDBRANCH  18  19
ENDBRANCH   1  18
TORSDOF 8
REMARK  Name = ../refined-set-2016/1hi5/1hi5_pocket.pdb
REMARK  143 active torsions:
REMARK  status: ('A' for Active; 'I' for Inactive)
REMARK    1  A    between atoms: _1  and  _5
REMARK    2  A    between atoms: _5  and  _6
REMARK    3  A    between atoms: _5  and  _8
REMARK    4  A    between atoms: _8  and  _9
REMARK    5  A    between atoms: _9  and  _10
REMARK    6  A    between atoms: _12  and  _14
REMARK    7  A    between atoms: _14  and  _15
REMARK    8  A    between atoms: _14  and  _17
REMARK    9  A    between atoms: _17  and  _18
REMARK   10  A    between atoms: _18  and  _19
REMARK   11  A    between atoms: _19  and  _20
REMARK   12  A    between atoms: _20  and  _21
REMARK   13  A    between atoms: _25  and  _27
REMARK   14  A    between atoms: _27  and  _28
REMARK   15  A    between atoms: _27  and  _30
REMARK   16  A    between atoms: _30  and  _31
REMARK   17  A    between atoms: _41  and  _43
REMARK   18  A    between atoms: _43  and  _44
REMARK   19  A    between atoms: _43  and  _46
REMARK   20  A    between atoms: _46  and  _47
REMARK   21  A    between atoms: _57  and  _59
REMARK   22  A    between atoms: _59  and  _60
REMARK   23  A    between atoms: _59  and  _62
REMARK   24  A    between atoms: _62  and  _63
REMARK   25  A    between atoms: _69  and  _71
REMARK   26  A    between atoms: _71  and  _72
REMARK   27  A    between atoms: _71  and  _74
REMARK   28  A    between atoms: _74  and  _75
REMARK   29  A    between atoms: _75  and  _76
REMARK   30  A    between atoms: _81  and  _83
REMARK   31  A    between atoms: _83  and  _84
REMARK   32  A    between atoms: _83  and  _86
REMARK   33  A    between atoms: _86  and  _87
REMARK   34  A    between atoms: _92  and  _94
REMARK   35  A    between atoms: _94  and  _95
REMARK   36  A    between atoms: _94  and  _97
REMARK   37  A    between atoms: _97  and  _98
REMARK   38  A    between atoms: _98  and  _99
REMARK   39  A    between atoms: _101  and  _103
REMARK   40  A    between atoms: _103  and  _104
REMARK   41  A    between atoms: _103  and  _106
REMARK   42  A    between atoms: _106  and  _107
REMARK   43  A    between atoms: _110  and  _112
REMARK   44  A    between atoms: _112  and  _113
REMARK   45  A    between atoms: _112  and  _115
REMARK   46  A    between atoms: _115  and  _116
REMARK   47  A    between atoms: _116  and  _117
REMARK   48  A    between atoms: _122  and  _124
REMARK   49  A    between atoms: _124  and  _125
REMARK   50  A    between atoms: _124  and  _127
REMARK   51  A    between atoms: _127  and  _128
REMARK   52  A    between atoms: _128  and  _129
REMARK   53  A    between atoms: _129  and  _130
REMARK   54  A    between atoms: _139  and  _141
REMARK   55  A    between atoms: _141  and  _142
REMARK   56  A    between atoms: _141  and  _144
REMARK   57  A    between atoms: _146  and  _148
REMARK   58  A    between atoms: _148  and  _149
REMARK   59  A    between atoms: _148  and  _151
REMARK   60  A    between atoms: _151  and  _152
REMARK   61  A    between atoms: _152  and  _153
REMARK   62  A    between atoms: _153  and  _154
REMARK   63  A    between atoms: _154  and  _155
REMARK   64  A    between atoms: _159  and  _161
REMARK   65  A    between atoms: _161  and  _162
REMARK   66  A    between atoms: _161  and  _164
REMARK   67  A    between atoms: _164  and  _165
REMARK   68  A    between atoms: _170  and  _172
REMARK   69  A    between atoms: _172  and  _173
REMARK   70  A    between atoms: _172  and  _175
REMARK   71  A    between atoms: _175  and  _176
REMARK   72  A    between atoms: _176  and  _177
REMARK   73  A    between atoms: _182  and  _184
REMARK   74  A    between atoms: _184  and  _185
REMARK   75  A    between atoms: _184  and  _187
REMARK   76  A    between atoms: _187  and  _188
REMARK   77  A    between atoms: _193  and  _195
REMARK   78  A    between atoms: _195  and  _196
REMARK   79  A    between atoms: _195  and  _198
REMARK   80  A    between atoms: _198  and  _199
REMARK   81  A    between atoms: _202  and  _204
REMARK   82  A    between atoms: _204  and  _205
REMARK   83  A    between atoms: _204  and  _207
REMARK   84  A    between atoms: _207  and  _208
REMARK   85  A    between atoms: _210  and  _212
REMARK   86  A    between atoms: _212  and  _213
REMARK   87  A    between atoms: _212  and  _215
REMARK   88  A    between atoms: _215  and  _216
REMARK   89  A    between atoms: _221  and  _223
REMARK   90  A    between atoms: _223  and  _224
REMARK   91  A    between atoms: _223  and  _226
REMARK   92  A    between atoms: _228  and  _230
REMARK   93  A    between atoms: _230  and  _231
REMARK   94  A    between atoms: _230  and  _233
REMARK   95  A    between atoms: _233  and  _234
REMARK   96  A    between atoms: _239  and  _241
REMARK   97  A    between atoms: _241  and  _242
REMARK   98  A    between atoms: _241  and  _244
REMARK   99  A    between atoms: _244  and  _245
REMARK  100  A    between atoms: _248  and  _250
REMARK  101  A    between atoms: _250  and  _251
REMARK  102  A    between atoms: _250  and  _253
REMARK  103  A    between atoms: _253  and  _254
REMARK  104  A    between atoms: _259  and  _260
REMARK  105  A    between atoms: _262  and  _264
REMARK  106  A    between atoms: _264  and  _265
REMARK  107  A    between atoms: _264  and  _267
REMARK  108  A    between atoms: _267  and  _268
REMARK  109  A    between atoms: _268  and  _269
REMARK  110  A    between atoms: _271  and  _273
REMARK  111  A    between atoms: _273  and  _274
REMARK  112  A    between atoms: _273  and  _276
REMARK  113  A    between atoms: _276  and  _277
REMARK  114  A    between atoms: _280  and  _282
REMARK  115  A    between atoms: _282  and  _283
REMARK  116  A    between atoms: _282  and  _285
REMARK  117  A    between atoms: _288  and  _290
REMARK  118  A    between atoms: _290  and  _291
REMARK  119  A    between atoms: _294  and  _296
REMARK  120  A    between atoms: _296  and  _297
REMARK  121  A    between atoms: _296  and  _299
REMARK  122  A    between atoms: _302  and  _304
REMARK  123  A    between atoms: _304  and  _305
REMARK  124  A    between atoms: _304  and  _307
REMARK  125  A    between atoms: _307  and  _308
REMARK  126  A    between atoms: _313  and  _315
REMARK  127  A    between atoms: _315  and  _316
REMARK  128  A    between atoms: _315  and  _318
REMARK  129  A    between atoms: _318  and  _319
REMARK  130  A    between atoms: _322  and  _324
REMARK  131  A    between atoms: _324  and  _325
REMARK  132  A    between atoms: _324  and  _327
REMARK  133  A    between atoms: _327  and  _328
REMARK  134  A    between atoms: _331  and  _333
REMARK  135  A    between atoms: _333  and  _334
REMARK  136  A    between atoms: _333  and  _336
REMARK  137  A    between atoms: _336  and  _337
REMARK  138  A    between atoms: _337  and  _338
REMARK  139  A    between atoms: _338  and  _339
REMARK  140  A    between atoms: _348  and  _350
REMARK  141  A    between atoms: _350  and  _351
REMARK  142  A    between atoms: _350  and  _353
REMARK  143  A    between atoms: _353  and  _354
REMARK                            x       y       z     vdW  Elec       q    Type
REMARK                         _______ _______ _______ _____ _____    ______ ____
ROOT
ATOM      1  C   GLN A   1      15.743   6.742  10.948  0.00  0.00    +0.238 C 
ATOM      2  N   HIS A   2      16.999   7.022  11.282  0.00  0.00    -0.298 N 
ATOM      3  H   HIS A   2      17.212   7.373  12.237  0.00  0.00    +0.150 HD
ATOM      4  O   GLN A   1      15.420   6.262   9.852  0.00  0.00    -0.274 OA
ENDROOT
BRANCH   1   5
ATOM      5  CA  GLN A   1      14.677   7.057  11.985  0.00  0.00    +0.145 C 
BRANCH   5   6
ATOM      6  N   GLN A   1      14.989   6.845  13.395  0.00  0.00    -0.238 NA
ATOM      7  H   GLN A   1      15.361   7.633  13.963  0.00  0.00    +0.142 HD
ENDBRANCH   5   6
BRANCH   5   8
ATOM      8  CB  GLN A   1      14.272   8.503  11.755  0.00  0.00    +0.036 C 
BRANCH   8   9
ATOM      9  CG  GLN A   1      12.938   8.903  12.302  0.00  0.00    +0.087 C 
BRANCH   9  10
ATOM     10  CD  GLN A   1      12.481  10.187  11.648  0.00  0.00    +0.219 C 
ATOM     11  NE2 GLN A   1      13.266  11.249  11.815  0.00  0.00    -0.329 N 
ATOM     12 HE21 GLN A   1      14.133  11.171  12.384  0.00  0.00    +0.145 HD
ATOM     13 HE22 GLN A   1      13.013  12.157  11.376  0.00  0.00    +0.145 HD
ATOM     14  OE1 GLN A   1      11.449  10.222  10.988  0.00  0.00    -0.275 OA
ENDBRANCH   9  10
ENDBRANCH   8   9
ENDBRANCH   5   8
ENDBRANCH   1   5
BRANCH   2  15
ATOM     15  CA  HIS A   2      18.076   6.842  10.324  0.00  0.00    +0.143 C 
BRANCH  15  16
ATOM     16  C   HIS A   2      19.194   5.860  10.658  0.00  0.00    +0.227 C 
ATOM     17  O   HIS A   2      20.065   5.622   9.822  0.00  0.00    -0.286 OA
ENDBRANCH  15  16
BRANCH  15  18
ATOM     18  CB  HIS A   2      18.674   8.213  10.015  0.00  0.00    +0.075 C 
BRANCH  18  19
ATOM     19  CG  HIS A   2      17.646   9.235   9.652  0.00  0.00    +0.082 A 
ATOM     20  CD2 HIS A   2      17.188  10.322  10.321  0.00  0.00    +0.115 A 
ATOM     21  NE2 HIS A   2      16.189  10.874   9.559  0.00  0.00    -0.221 NA
ATOM     22  CE1 HIS A   2      16.039  10.155   8.461  0.00  0.00    +0.199 A 
ATOM     23  ND1 HIS A   2      16.908   9.161   8.492  0.00  0.00    -0.227 NA
ENDBRANCH  18  19
ENDBRANCH  15  18
ENDBRANCH   2  15
TORSDOF 9
REMARK  Name = ../refined-set-2016/1hi5/1hi5_pocket.pdb
REMARK  143 active torsions:
REMARK  status: ('A' for Active; 'I' for Inactive)
REMARK    1  A    between atoms: _1  and  _5
REMARK    2  A    between atoms: _5  and  _6
REMARK    3  A    between atoms: _5  and  _8
REMARK    4  A    between atoms: _8  and  _9
REMARK    5  A    between atoms: _9  and  _10
REMARK    6  A    between atoms: _12  and  _14
REMARK    7  A    between atoms: _14  and  _15
REMARK    8  A    between atoms: _14  and  _17
REMARK    9  A    between atoms: _17  and  _18
REMARK   10  A    between atoms: _18  and  _19
REMARK   11  A    between atoms: _19  and  _20
REMARK   12  A    between atoms: _20  and  _21
REMARK   13  A    between atoms: _25  and  _27
REMARK   14  A    between atoms: _27  and  _28
REMARK   15  A    between atoms: _27  and  _30
REMARK   16  A    between atoms: _30  and  _31
REMARK   17  A    between atoms: _41  and  _43
REMARK   18  A    between atoms: _43  and  _44
REMARK   19  A    between atoms: _43  and  _46
REMARK   20  A    between atoms: _46  and  _47
REMARK   21  A    between atoms: _57  and  _59
REMARK   22  A    between atoms: _59  and  _60
REMARK   23  A    between atoms: _59  and  _62
REMARK   24  A    between atoms: _62  and  _63
REMARK   25  A    between atoms: _69  and  _71
REMARK   26  A    between atoms: _71  and  _72
REMARK   27  A    between atoms: _71  and  _74
REMARK   28  A    between atoms: _74  and  _75
REMARK   29  A    between atoms: _75  and  _76
REMARK   30  A    between atoms: _81  and  _83
REMARK   31  A    between atoms: _83  and  _84
REMARK   32  A    between atoms: _83  and  _86
REMARK   33  A    between atoms: _86  and  _87
REMARK   34  A    between atoms: _92  and  _94
REMARK   35  A    between atoms: _94  and  _95
REMARK   36  A    between atoms: _94  and  _97
REMARK   37  A    between atoms: _97  and  _98
REMARK   38  A    between atoms: _98  and  _99
REMARK   39  A    between atoms: _101  and  _103
REMARK   40  A    between atoms: _103  and  _104
REMARK   41  A    between atoms: _103  and  _106
REMARK   42  A    between atoms: _106  and  _107
REMARK   43  A    between atoms: _110  and  _112
REMARK   44  A    between atoms: _112  and  _113
REMARK   45  A    between atoms: _112  and  _115
REMARK   46  A    between atoms: _115  and  _116
REMARK   47  A    between atoms: _116  and  _117
REMARK   48  A    between atoms: _122  and  _124
REMARK   49  A    between atoms: _124  and  _125
REMARK   50  A    between atoms: _124  and  _127
REMARK   51  A    between atoms: _127  and  _128
REMARK   52  A    between atoms: _128  and  _129
REMARK   53  A    between atoms: _129  and  _130
REMARK   54  A    between atoms: _139  and  _141
REMARK   55  A    between atoms: _141  and  _142
REMARK   56  A    between atoms: _141  and  _144
REMARK   57  A    between atoms: _146  and  _148
REMARK   58  A    between atoms: _148  and  _149
REMARK   59  A    between atoms: _148  and  _151
REMARK   60  A    between atoms: _151  and  _152
REMARK   61  A    between atoms: _152  and  _153
REMARK   62  A    between atoms: _153  and  _154
REMARK   63  A    between atoms: _154  and  _155
REMARK   64  A    between atoms: _159  and  _161
REMARK   65  A    between atoms: _161  and  _162
REMARK   66  A    between atoms: _161  and  _164
REMARK   67  A    between atoms: _164  and  _165
REMARK   68  A    between atoms: _170  and  _172
REMARK   69  A    between atoms: _172  and  _173
REMARK   70  A    between atoms: _172  and  _175
REMARK   71  A    between atoms: _175  and  _176
REMARK   72  A    between atoms: _176  and  _177
REMARK   73  A    between atoms: _182  and  _184
REMARK   74  A    between atoms: _184  and  _185
REMARK   75  A    between atoms: _184  and  _187
REMARK   76  A    between atoms: _187  and  _188
REMARK   77  A    between atoms: _193  and  _195
REMARK   78  A    between atoms: _195  and  _196
REMARK   79  A    between atoms: _195  and  _198
REMARK   80  A    between atoms: _198  and  _199
REMARK   81  A    between atoms: _202  and  _204
REMARK   82  A    between atoms: _204  and  _205
REMARK   83  A    between atoms: _204  and  _207
REMARK   84  A    between atoms: _207  and  _208
REMARK   85  A    between atoms: _210  and  _212
REMARK   86  A    between atoms: _212  and  _213
REMARK   87  A    between atoms: _212  and  _215
REMARK   88  A    between atoms: _215  and  _216
REMARK   89  A    between atoms: _221  and  _223
REMARK   90  A    between atoms: _223  and  _224
REMARK   91  A    between atoms: _223  and  _226
REMARK   92  A    between atoms: _228  and  _230
REMARK   93  A    between atoms: _230  and  _231
REMARK   94  A    between atoms: _230  and  _233
REMARK   95  A    between atoms: _233  and  _234
REMARK   96  A    between atoms: _239  and  _241
REMARK   97  A    between atoms: _241  and  _242
REMARK   98  A    between atoms: _241  and  _244
REMARK   99  A    between atoms: _244  and  _245
REMARK  100  A    between atoms: _248  and  _250
REMARK  101  A    between atoms: _250  and  _251
REMARK  102  A    between atoms: _250  and  _253
REMARK  103  A    between atoms: _253  and  _254
REMARK  104  A    between atoms: _259  and  _260
REMARK  105  A    between atoms: _262  and  _264
REMARK  106  A    between atoms: _264  and  _265
REMARK  107  A    between atoms: _264  and  _267
REMARK  108  A    between atoms: _267  and  _268
REMARK  109  A    between atoms: _268  and  _269
REMARK  110  A    between atoms: _271  and  _273
REMARK  111  A    between atoms: _273  and  _274
REMARK  112  A    between atoms: _273  and  _276
REMARK  113  A    between atoms: _276  and  _277
REMARK  114  A    between atoms: _280  and  _282
REMARK  115  A    between atoms: _282  and  _283
REMARK  116  A    between atoms: _282  and  _285
REMARK  117  A    between atoms: _288  and  _290
REMARK  118  A    between atoms: _290  and  _291
REMARK  119  A    between atoms: _294  and  _296
REMARK  120  A    between atoms: _296  and  _297
REMARK  121  A    between atoms: _296  and  _299
REMARK  122  A    between atoms: _302  and  _304
REMARK  123  A    between atoms: _304  and  _305
REMARK  124  A    between atoms: _304  and  _307
REMARK  125  A    between atoms: _307  and  _308
REMARK  126  A    between atoms: _313  and  _315
REMARK  127  A    between atoms: _315  and  _316
REMARK  128  A    between atoms: _315  and  _318
REMARK  129  A    between atoms: _318  and  _319
REMARK  130  A    between atoms: _322  and  _324
REMARK  131  A    between atoms: _324  and  _325
REMARK  132  A    between atoms: _324  and  _327
REMARK  133  A    between atoms: _327  and  _328
REMARK  134  A    between atoms: _331  and  _333
REMARK  135  A    between atoms: _333  and  _334
REMARK  136  A    between atoms: _333  and  _336
REMARK  137  A    between atoms: _336  and  _337
REMARK  138  A    between atoms: _337  and  _338
REMARK  139  A    between atoms: _338  and  _339
REMARK  140  A    between atoms: _348  and  _350
REMARK  141  A    between atoms: _350  and  _351
REMARK  142  A    between atoms: _350  and  _353
REMARK  143  A    between atoms: _353  and  _354
REMARK                            x       y       z     vdW  Elec       q    Type
REMARK                         _______ _______ _______ _____ _____    ______ ____
ROOT
ATOM      1  CA  MET A   1       9.056   1.864   8.279  0.00  0.00    +0.134 C 
ENDROOT
BRANCH   1   2
ATOM      2  N   MET A   1       9.867   0.645   8.214  0.00  0.00    -0.239 NA
ATOM      3  H   MET A   1       9.875   0.087   7.336  0.00  0.00    +0.142 HD
ENDBRANCH   1   2
BRANCH   1   4
ATOM      4  C   MET A   1       7.861   1.790   9.226  0.00  0.00    +0.224 C 
ATOM      5  O   MET A   1       7.360   2.820   9.661  0.00  0.00    -0.287 OA
ENDBRANCH   1   4
BRANCH   1   6
ATOM      6  CB  MET A   1       8.580   2.269   6.875  0.00  0.00    +0.037 C 
BRANCH   6   7
ATOM      7  CG  MET A   1       9.714   2.795   5.964  0.00  0.00    +0.059 C 
BRANCH   7   8
ATOM      8  SD  MET A   1      10.699   4.177   6.620  0.00  0.00    -0.139 S 
ATOM      9  CE  MET A   1       9.424   5.405   6.899  0.00  0.00    +0.069 C 
ENDBRANCH   7   8
ENDBRANCH   6   7
ENDBRANCH   1   6
TORSDOF 5
REMARK  Name = ../refined-set-2016/1hi5/1hi5_pocket.pdb
REMARK  143 active torsions:
REMARK  status: ('A' for Active; 'I' for Inactive)
REMARK    1  A    between atoms: _1  and  _5
REMARK    2  A    between atoms: _5  and  _6
REMARK    3  A    between atoms: _5  and  _8
REMARK    4  A    between atoms: _8  and  _9
REMARK    5  A    between atoms: _9  and  _10
REMARK    6  A    between atoms: _12  and  _14
REMARK    7  A    between atoms: _14  and  _15
REMARK    8  A    between atoms: _14  and  _17
REMARK    9  A    between atoms: _17  and  _18
REMARK   10  A    between atoms: _18  and  _19
REMARK   11  A    between atoms: _19  and  _20
REMARK   12  A    between atoms: _20  and  _21
REMARK   13  A    between atoms: _25  and  _27
REMARK   14  A    between atoms: _27  and  _28
REMARK   15  A    between atoms: _27  and  _30
REMARK   16  A    between atoms: _30  and  _31
REMARK   17  A    between atoms: _41  and  _43
REMARK   18  A    between atoms: _43  and  _44
REMARK   19  A    between atoms: _43  and  _46
REMARK   20  A    between atoms: _46  and  _47
REMARK   21  A    between atoms: _57  and  _59
REMARK   22  A    between atoms: _59  and  _60
REMARK   23  A    between atoms: _59  and  _62
REMARK   24  A    between atoms: _62  and  _63
REMARK   25  A    between atoms: _69  and  _71
REMARK   26  A    between atoms: _71  and  _72
REMARK   27  A    between atoms: _71  and  _74
REMARK   28  A    between atoms: _74  and  _75
REMARK   29  A    between atoms: _75  and  _76
REMARK   30  A    between atoms: _81  and  _83
REMARK   31  A    between atoms: _83  and  _84
REMARK   32  A    between atoms: _83  and  _86
REMARK   33  A    between atoms: _86  and  _87
REMARK   34  A    between atoms: _92  and  _94
REMARK   35  A    between atoms: _94  and  _95
REMARK   36  A    between atoms: _94  and  _97
REMARK   37  A    between atoms: _97  and  _98
REMARK   38  A    between atoms: _98  and  _99
REMARK   39  A    between atoms: _101  and  _103
REMARK   40  A    between atoms: _103  and  _104
REMARK   41  A    between atoms: _103  and  _106
REMARK   42  A    between atoms: _106  and  _107
REMARK   43  A    between atoms: _110  and  _112
REMARK   44  A    between atoms: _112  and  _113
REMARK   45  A    between atoms: _112  and  _115
REMARK   46  A    between atoms: _115  and  _116
REMARK   47  A    between atoms: _116  and  _117
REMARK   48  A    between atoms: _122  and  _124
REMARK   49  A    between atoms: _124  and  _125
REMARK   50  A    between atoms: _124  and  _127
REMARK   51  A    between atoms: _127  and  _128
REMARK   52  A    between atoms: _128  and  _129
REMARK   53  A    between atoms: _129  and  _130
REMARK   54  A    between atoms: _139  and  _141
REMARK   55  A    between atoms: _141  and  _142
REMARK   56  A    between atoms: _141  and  _144
REMARK   57  A    between atoms: _146  and  _148
REMARK   58  A    between atoms: _148  and  _149
REMARK   59  A    between atoms: _148  and  _151
REMARK   60  A    between atoms: _151  and  _152
REMARK   61  A    between atoms: _152  and  _153
REMARK   62  A    between atoms: _153  and  _154
REMARK   63  A    between atoms: _154  and  _155
REMARK   64  A    between atoms: _159  and  _161
REMARK   65  A    between atoms: _161  and  _162
REMARK   66  A    between atoms: _161  and  _164
REMARK   67  A    between atoms: _164  and  _165
REMARK   68  A    between atoms: _170  and  _172
REMARK   69  A    between atoms: _172  and  _173
REMARK   70  A    between atoms: _172  and  _175
REMARK   71  A    between atoms: _175  and  _176
REMARK   72  A    between atoms: _176  and  _177
REMARK   73  A    between atoms: _182  and  _184
REMARK   74  A    between atoms: _184  and  _185
REMARK   75  A    between atoms: _184  and  _187
REMARK   76  A    between atoms: _187  and  _188
REMARK   77  A    between atoms: _193  and  _195
REMARK   78  A    between atoms: _195  and  _196
REMARK   79  A    between atoms: _195  and  _198
REMARK   80  A    between atoms: _198  and  _199
REMARK   81  A    between atoms: _202  and  _204
REMARK   82  A    between atoms: _204  and  _205
REMARK   83  A    between atoms: _204  and  _207
REMARK   84  A    between atoms: _207  and  _208
REMARK   85  A    between atoms: _210  and  _212
REMARK   86  A    between atoms: _212  and  _213
REMARK   87  A    between atoms: _212  and  _215
REMARK   88  A    between atoms: _215  and  _216
REMARK   89  A    between atoms: _221  and  _223
REMARK   90  A    between atoms: _223  and  _224
REMARK   91  A    between atoms: _223  and  _226
REMARK   92  A    between atoms: _228  and  _230
REMARK   93  A    between atoms: _230  and  _231
REMARK   94  A    between atoms: _230  and  _233
REMARK   95  A    between atoms: _233  and  _234
REMARK   96  A    between atoms: _239  and  _241
REMARK   97  A    between atoms: _241  and  _242
REMARK   98  A    between atoms: _241  and  _244
REMARK   99  A    between atoms: _244  and  _245
REMARK  100  A    between atoms: _248  and  _250
REMARK  101  A    between atoms: _250  and  _251
REMARK  102  A    between atoms: _250  and  _253
REMARK  103  A    between atoms: _253  and  _254
REMARK  104  A    between atoms: _259  and  _260
REMARK  105  A    between atoms: _262  and  _264
REMARK  106  A    between atoms: _264  and  _265
REMARK  107  A    between atoms: _264  and  _267
REMARK  108  A    between atoms: _267  and  _268
REMARK  109  A    between atoms: _268  and  _269
REMARK  110  A    between atoms: _271  and  _273
REMARK  111  A    between atoms: _273  and  _274
REMARK  112  A    between atoms: _273  and  _276
REMARK  113  A    between atoms: _276  and  _277
REMARK  114  A    between atoms: _280  and  _282
REMARK  115  A    between atoms: _282  and  _283
REMARK  116  A    between atoms: _282  and  _285
REMARK  117  A    between atoms: _288  and  _290
REMARK  118  A    between atoms: _290  and  _291
REMARK  119  A    between atoms: _294  and  _296
REMARK  120  A    between atoms: _296  and  _297
REMARK  121  A    between atoms: _296  and  _299
REMARK  122  A    between atoms: _302  and  _304
REMARK  123  A    between atoms: _304  and  _305
REMARK  124  A    between atoms: _304  and  _307
REMARK  125  A    between atoms: _307  and  _308
REMARK  126  A    between atoms: _313  and  _315
REMARK  127  A    between atoms: _315  and  _316
REMARK  128  A    between atoms: _315  and  _318
REMARK  129  A    between atoms: _318  and  _319
REMARK  130  A    between atoms: _322  and  _324
REMARK  131  A    between atoms: _324  and  _325
REMARK  132  A    between atoms: _324  and  _327
REMARK  133  A    between atoms: _327  and  _328
REMARK  134  A    between atoms: _331  and  _333
REMARK  135  A    between atoms: _333  and  _334
REMARK  136  A    between atoms: _333  and  _336
REMARK  137  A    between atoms: _336  and  _337
REMARK  138  A    between atoms: _337  and  _338
REMARK  139  A    between atoms: _338  and  _339
REMARK  140  A    between atoms: _348  and  _350
REMARK  141  A    between atoms: _350  and  _351
REMARK  142  A    between atoms: _350  and  _353
REMARK  143  A    between atoms: _353  and  _354
REMARK                            x       y       z     vdW  Elec       q    Type
REMARK                         _______ _______ _______ _____ _____    ______ ____
ROOT
ATOM      1  CA  ILE A   1       8.650   5.105  12.302  0.00  0.00    +0.133 C 
ENDROOT
BRANCH   1   2
ATOM      2  N   ILE A   1       8.729   3.655  12.436  0.00  0.00    -0.239 NA
ATOM      3  H   ILE A   1       9.238   3.107  11.713  0.00  0.00    +0.142 HD
ENDBRANCH   1   2
BRANCH   1   4
ATOM      4  C   ILE A   1       7.201   5.603  12.195  0.00  0.00    +0.224 C 
ATOM      5  O   ILE A   1       6.799   6.563  12.873  0.00  0.00    -0.287 OA
ENDBRANCH   1   4
BRANCH   1   6
ATOM      6  CB  ILE A   1       9.411   5.575  11.037  0.00  0.00    +0.023 C 
ATOM      7  CG2 ILE A   1       9.113   7.056  10.761  0.00  0.00    +0.002 C 
BRANCH   6   8
ATOM      8  CG1 ILE A   1      10.911   5.315  11.203  0.00  0.00    +0.002 C 
ATOM      9  CD1 ILE A   1      11.716   5.588   9.945  0.00  0.00    +0.000 C 
ENDBRANCH   6   8
ENDBRANCH   1   6
TORSDOF 4
REMARK  Name = ../refined-set-2016/1hi5/1hi5_pocket.pdb
REMARK  143 active torsions:
REMARK  status: ('A' for Active; 'I' for Inactive)
REMARK    1  A    between atoms: _1  and  _5
REMARK    2  A    between atoms: _5  and  _6
REMARK    3  A    between atoms: _5  and  _8
REMARK    4  A    between atoms: _8  and  _9
REMARK    5  A    between atoms: _9  and  _10
REMARK    6  A    between atoms: _12  and  _14
REMARK    7  A    between atoms: _14  and  _15
REMARK    8  A    between atoms: _14  and  _17
REMARK    9  A    between atoms: _17  and  _18
REMARK   10  A    between atoms: _18  and  _19
REMARK   11  A    between atoms: _19  and  _20
REMARK   12  A    between atoms: _20  and  _21
REMARK   13  A    between atoms: _25  and  _27
REMARK   14  A    between atoms: _27  and  _28
REMARK   15  A    between atoms: _27  and  _30
REMARK   16  A    between atoms: _30  and  _31
REMARK   17  A    between atoms: _41  and  _43
REMARK   18  A    between atoms: _43  and  _44
REMARK   19  A    between atoms: _43  and  _46
REMARK   20  A    between atoms: _46  and  _47
REMARK   21  A    between atoms: _57  and  _59
REMARK   22  A    between atoms: _59  and  _60
REMARK   23  A    between atoms: _59  and  _62
REMARK   24  A    between atoms: _62  and  _63
REMARK   25  A    between atoms: _69  and  _71
REMARK   26  A    between atoms: _71  and  _72
REMARK   27  A    between atoms: _71  and  _74
REMARK   28  A    between atoms: _74  and  _75
REMARK   29  A    between atoms: _75  and  _76
REMARK   30  A    between atoms: _81  and  _83
REMARK   31  A    between atoms: _83  and  _84
REMARK   32  A    between atoms: _83  and  _86
REMARK   33  A    between atoms: _86  and  _87
REMARK   34  A    between atoms: _92  and  _94
REMARK   35  A    between atoms: _94  and  _95
REMARK   36  A    between atoms: _94  and  _97
REMARK   37  A    between atoms: _97  and  _98
REMARK   38  A    between atoms: _98  and  _99
REMARK   39  A    between atoms: _101  and  _103
REMARK   40  A    between atoms: _103  and  _104
REMARK   41  A    between atoms: _103  and  _106
REMARK   42  A    between atoms: _106  and  _107
REMARK   43  A    between atoms: _110  and  _112
REMARK   44  A    between atoms: _112  and  _113
REMARK   45  A    between atoms: _112  and  _115
REMARK   46  A    between atoms: _115  and  _116
REMARK   47  A    between atoms: _116  and  _117
REMARK   48  A    between atoms: _122  and  _124
REMARK   49  A    between atoms: _124  and  _125
REMARK   50  A    between atoms: _124  and  _127
REMARK   51  A    between atoms: _127  and  _128
REMARK   52  A    between atoms: _128  and  _129
REMARK   53  A    between atoms: _129  and  _130
REMARK   54  A    between atoms: _139  and  _141
REMARK   55  A    between atoms: _141  and  _142
REMARK   56  A    between atoms: _141  and  _144
REMARK   57  A    between atoms: _146  and  _148
REMARK   58  A    between atoms: _148  and  _149
REMARK   59  A    between atoms: _148  and  _151
REMARK   60  A    between atoms: _151  and  _152
REMARK   61  A    between atoms: _152  and  _153
REMARK   62  A    between atoms: _153  and  _154
REMARK   63  A    between atoms: _154  and  _155
REMARK   64  A    between atoms: _159  and  _161
REMARK   65  A    between atoms: _161  and  _162
REMARK   66  A    between atoms: _161  and  _164
REMARK   67  A    between atoms: _164  and  _165
REMARK   68  A    between atoms: _170  and  _172
REMARK   69  A    between atoms: _172  and  _173
REMARK   70  A    between atoms: _172  and  _175
REMARK   71  A    between atoms: _175  and  _176
REMARK   72  A    between atoms: _176  and  _177
REMARK   73  A    between atoms: _182  and  _184
REMARK   74  A    between atoms: _184  and  _185
REMARK   75  A    between atoms: _184  and  _187
REMARK   76  A    between atoms: _187  and  _188
REMARK   77  A    between atoms: _193  and  _195
REMARK   78  A    between atoms: _195  and  _196
REMARK   79  A    between atoms: _195  and  _198
REMARK   80  A    between atoms: _198  and  _199
REMARK   81  A    between atoms: _202  and  _204
REMARK   82  A    between atoms: _204  and  _205
REMARK   83  A    between atoms: _204  and  _207
REMARK   84  A    between atoms: _207  and  _208
REMARK   85  A    between atoms: _210  and  _212
REMARK   86  A    between atoms: _212  and  _213
REMARK   87  A    between atoms: _212  and  _215
REMARK   88  A    between atoms: _215  and  _216
REMARK   89  A    between atoms: _221  and  _223
REMARK   90  A    between atoms: _223  and  _224
REMARK   91  A    between atoms: _223  and  _226
REMARK   92  A    between atoms: _228  and  _230
REMARK   93  A    between atoms: _230  and  _231
REMARK   94  A    between atoms: _230  and  _233
REMARK   95  A    between atoms: _233  and  _234
REMARK   96  A    between atoms: _239  and  _241
REMARK   97  A    between atoms: _241  and  _242
REMARK   98  A    between atoms: _241  and  _244
REMARK   99  A    between atoms: _244  and  _245
REMARK  100  A    between atoms: _248  and  _250
REMARK  101  A    between atoms: _250  and  _251
REMARK  102  A    between atoms: _250  and  _253
REMARK  103  A    between atoms: _253  and  _254
REMARK  104  A    between atoms: _259  and  _260
REMARK  105  A    between atoms: _262  and  _264
REMARK  106  A    between atoms: _264  and  _265
REMARK  107  A    between atoms: _264  and  _267
REMARK  108  A    between atoms: _267  and  _268
REMARK  109  A    between atoms: _268  and  _269
REMARK  110  A    between atoms: _271  and  _273
REMARK  111  A    between atoms: _273  and  _274
REMARK  112  A    between atoms: _273  and  _276
REMARK  113  A    between atoms: _276  and  _277
REMARK  114  A    between atoms: _280  and  _282
REMARK  115  A    between atoms: _282  and  _283
REMARK  116  A    between atoms: _282  and  _285
REMARK  117  A    between atoms: _288  and  _290
REMARK  118  A    between atoms: _290  and  _291
REMARK  119  A    between atoms: _294  and  _296
REMARK  120  A    between atoms: _296  and  _297
REMARK  121  A    between atoms: _296  and  _299
REMARK  122  A    between atoms: _302  and  _304
REMARK  123  A    between atoms: _304  and  _305
REMARK  124  A    between atoms: _304  and  _307
REMARK  125  A    between atoms: _307  and  _308
REMARK  126  A    between atoms: _313  and  _315
REMARK  127  A    between atoms: _315  and  _316
REMARK  128  A    between atoms: _315  and  _318
REMARK  129  A    between atoms: _318  and  _319
REMARK  130  A    between atoms: _322  and  _324
REMARK  131  A    between atoms: _324  and  _325
REMARK  132  A    between atoms: _324  and  _327
REMARK  133  A    between atoms: _327  and  _328
REMARK  134  A    between atoms: _331  and  _333
REMARK  135  A    between atoms: _333  and  _334
REMARK  136  A    between atoms: _333  and  _336
REMARK  137  A    between atoms: _336  and  _337
REMARK  138  A    between atoms: _337  and  _338
REMARK  139  A    between atoms: _338  and  _339
REMARK  140  A    between atoms: _348  and  _350
REMARK  141  A    between atoms: _350  and  _351
REMARK  142  A    between atoms: _350  and  _353
REMARK  143  A    between atoms: _353  and  _354
REMARK                            x       y       z     vdW  Elec       q    Type
REMARK                         _______ _______ _______ _____ _____    ______ ____
ROOT
ATOM      1  CB  GLN A   1       5.525  10.069  13.233  0.00  0.00    +0.035 C 
ENDROOT
BRANCH   1   2
ATOM      2  CA  GLN A   1       4.533   9.434  14.229  0.00  0.00    +0.134 C 
BRANCH   2   3
ATOM      3  N   GLN A   1       4.987   8.098  14.617  0.00  0.00    -0.239 NA
ATOM      4  H   GLN A   1       5.378   7.455  13.899  0.00  0.00    +0.142 HD
ENDBRANCH   2   3
BRANCH   2   5
ATOM      5  C   GLN A   1       3.092   9.507  13.695  0.00  0.00    +0.224 C 
ATOM      6  O   GLN A   1       2.645  10.560  13.238  0.00  0.00    -0.287 OA
ENDBRANCH   2   5
ENDBRANCH   1   2
BRANCH   1   7
ATOM      7  CG  GLN A   1       5.704   9.349  11.912  0.00  0.00    +0.087 C 
BRANCH   7   8
ATOM      8  CD  GLN A   1       6.455  10.189  10.864  0.00  0.00    +0.219 C 
ATOM      9  NE2 GLN A   1       7.397  11.017  11.318  0.00  0.00    -0.329 N 
ATOM     10 HE21 GLN A   1       7.593  11.072  12.338  0.00  0.00    +0.145 HD
ATOM     11 HE22 GLN A   1       7.935  11.607  10.652  0.00  0.00    +0.145 HD
ATOM     12  OE1 GLN A   1       6.183  10.086   9.660  0.00  0.00    -0.275 OA
ENDBRANCH   7   8
ENDBRANCH   1   7
TORSDOF 5
REMARK  Name = ../refined-set-2016/1hi5/1hi5_pocket.pdb
REMARK  143 active torsions:
REMARK  status: ('A' for Active; 'I' for Inactive)
REMARK    1  A    between atoms: _1  and  _5
REMARK    2  A    between atoms: _5  and  _6
REMARK    3  A    between atoms: _5  and  _8
REMARK    4  A    between atoms: _8  and  _9
REMARK    5  A    between atoms: _9  and  _10
REMARK    6  A    between atoms: _12  and  _14
REMARK    7  A    between atoms: _14  and  _15
REMARK    8  A    between atoms: _14  and  _17
REMARK    9  A    between atoms: _17  and  _18
REMARK   10  A    between atoms: _18  and  _19
REMARK   11  A    between atoms: _19  and  _20
REMARK   12  A    between atoms: _20  and  _21
REMARK   13  A    between atoms: _25  and  _27
REMARK   14  A    between atoms: _27  and  _28
REMARK   15  A    between atoms: _27  and  _30
REMARK   16  A    between atoms: _30  and  _31
REMARK   17  A    between atoms: _41  and  _43
REMARK   18  A    between atoms: _43  and  _44
REMARK   19  A    between atoms: _43  and  _46
REMARK   20  A    between atoms: _46  and  _47
REMARK   21  A    between atoms: _57  and  _59
REMARK   22  A    between atoms: _59  and  _60
REMARK   23  A    between atoms: _59  and  _62
REMARK   24  A    between atoms: _62  and  _63
REMARK   25  A    between atoms: _69  and  _71
REMARK   26  A    between atoms: _71  and  _72
REMARK   27  A    between atoms: _71  and  _74
REMARK   28  A    between atoms: _74  and  _75
REMARK   29  A    between atoms: _75  and  _76
REMARK   30  A    between atoms: _81  and  _83
REMARK   31  A    between atoms: _83  and  _84
REMARK   32  A    between atoms: _83  and  _86
REMARK   33  A    between atoms: _86  and  _87
REMARK   34  A    between atoms: _92  and  _94
REMARK   35  A    between atoms: _94  and  _95
REMARK   36  A    between atoms: _94  and  _97
REMARK   37  A    between atoms: _97  and  _98
REMARK   38  A    between atoms: _98  and  _99
REMARK   39  A    between atoms: _101  and  _103
REMARK   40  A    between atoms: _103  and  _104
REMARK   41  A    between atoms: _103  and  _106
REMARK   42  A    between atoms: _106  and  _107
REMARK   43  A    between atoms: _110  and  _112
REMARK   44  A    between atoms: _112  and  _113
REMARK   45  A    between atoms: _112  and  _115
REMARK   46  A    between atoms: _115  and  _116
REMARK   47  A    between atoms: _116  and  _117
REMARK   48  A    between atoms: _122  and  _124
REMARK   49  A    between atoms: _124  and  _125
REMARK   50  A    between atoms: _124  and  _127
REMARK   51  A    between atoms: _127  and  _128
REMARK   52  A    between atoms: _128  and  _129
REMARK   53  A    between atoms: _129  and  _130
REMARK   54  A    between atoms: _139  and  _141
REMARK   55  A    between atoms: _141  and  _142
REMARK   56  A    between atoms: _141  and  _144
REMARK   57  A    between atoms: _146  and  _148
REMARK   58  A    between atoms: _148  and  _149
REMARK   59  A    between atoms: _148  and  _151
REMARK   60  A    between atoms: _151  and  _152
REMARK   61  A    between atoms: _152  and  _153
REMARK   62  A    between atoms: _153  and  _154
REMARK   63  A    between atoms: _154  and  _155
REMARK   64  A    between atoms: _159  and  _161
REMARK   65  A    between atoms: _161  and  _162
REMARK   66  A    between atoms: _161  and  _164
REMARK   67  A    between atoms: _164  and  _165
REMARK   68  A    between atoms: _170  and  _172
REMARK   69  A    between atoms: _172  and  _173
REMARK   70  A    between atoms: _172  and  _175
REMARK   71  A    between atoms: _175  and  _176
REMARK   72  A    between atoms: _176  and  _177
REMARK   73  A    between atoms: _182  and  _184
REMARK   74  A    between atoms: _184  and  _185
REMARK   75  A    between atoms: _184  and  _187
REMARK   76  A    between atoms: _187  and  _188
REMARK   77  A    between atoms: _193  and  _195
REMARK   78  A    between atoms: _195  and  _196
REMARK   79  A    between atoms: _195  and  _198
REMARK   80  A    between atoms: _198  and  _199
REMARK   81  A    between atoms: _202  and  _204
REMARK   82  A    between atoms: _204  and  _205
REMARK   83  A    between atoms: _204  and  _207
REMARK   84  A    between atoms: _207  and  _208
REMARK   85  A    between atoms: _210  and  _212
REMARK   86  A    between atoms: _212  and  _213
REMARK   87  A    between atoms: _212  and  _215
REMARK   88  A    between atoms: _215  and  _216
REMARK   89  A    between atoms: _221  and  _223
REMARK   90  A    between atoms: _223  and  _224
REMARK   91  A    between atoms: _223  and  _226
REMARK   92  A    between atoms: _228  and  _230
REMARK   93  A    between atoms: _230  and  _231
REMARK   94  A    between atoms: _230  and  _233
REMARK   95  A    between atoms: _233  and  _234
REMARK   96  A    between atoms: _239  and  _241
REMARK   97  A    between atoms: _241  and  _242
REMARK   98  A    between atoms: _241  and  _244
REMARK   99  A    between atoms: _244  and  _245
REMARK  100  A    between atoms: _248  and  _250
REMARK  101  A    between atoms: _250  and  _251
REMARK  102  A    between atoms: _250  and  _253
REMARK  103  A    between atoms: _253  and  _254
REMARK  104  A    between atoms: _259  and  _260
REMARK  105  A    between atoms: _262  and  _264
REMARK  106  A    between atoms: _264  and  _265
REMARK  107  A    between atoms: _264  and  _267
REMARK  108  A    between atoms: _267  and  _268
REMARK  109  A    between atoms: _268  and  _269
REMARK  110  A    between atoms: _271  and  _273
REMARK  111  A    between atoms: _273  and  _274
REMARK  112  A    between atoms: _273  and  _276
REMARK  113  A    between atoms: _276  and  _277
REMARK  114  A    between atoms: _280  and  _282
REMARK  115  A    between atoms: _282  and  _283
REMARK  116  A    between atoms: _282  and  _285
REMARK  117  A    between atoms: _288  and  _290
REMARK  118  A    between atoms: _290  and  _291
REMARK  119  A    between atoms: _294  and  _296
REMARK  120  A    between atoms: _296  and  _297
REMARK  121  A    between atoms: _296  and  _299
REMARK  122  A    between atoms: _302  and  _304
REMARK  123  A    between atoms: _304  and  _305
REMARK  124  A    between atoms: _304  and  _307
REMARK  125  A    between atoms: _307  and  _308
REMARK  126  A    between atoms: _313  and  _315
REMARK  127  A    between atoms: _315  and  _316
REMARK  128  A    between atoms: _315  and  _318
REMARK  129  A    between atoms: _318  and  _319
REMARK  130  A    between atoms: _322  and  _324
REMARK  131  A    between atoms: _324  and  _325
REMARK  132  A    between atoms: _324  and  _327
REMARK  133  A    between atoms: _327  and  _328
REMARK  134  A    between atoms: _331  and  _333
REMARK  135  A    between atoms: _333  and  _334
REMARK  136  A    between atoms: _333  and  _336
REMARK  137  A    between atoms: _336  and  _337
REMARK  138  A    between atoms: _337  and  _338
REMARK  139  A    between atoms: _338  and  _339
REMARK  140  A    between atoms: _348  and  _350
REMARK  141  A    between atoms: _350  and  _351
REMARK  142  A    between atoms: _350  and  _353
REMARK  143  A    between atoms: _353  and  _354
REMARK                            x       y       z     vdW  Elec       q    Type
REMARK                         _______ _______ _______ _____ _____    ______ ____
ROOT
ATOM      1  CA  ASN A   4       6.758   9.393   2.375  0.00  0.00    +0.158 C 
ENDROOT
BRANCH   1   2
ATOM      2  C   ASN A   4       8.139   8.890   1.951  0.00  0.00    +0.241 C 
ATOM      3  N   GLN A   5       9.169   9.410   2.605  0.00  0.00    -0.297 N 
ATOM      4  H   GLN A   5       8.990  10.101   3.361  0.00  0.00    +0.150 HD
ATOM      5  O   ASN A   4       8.265   8.048   1.051  0.00  0.00    -0.273 OA
BRANCH   3   6
ATOM      6  CA  GLN A   5      10.544   9.041   2.295  0.00  0.00    +0.149 C 
BRANCH   6   7
ATOM      7  C   GLN A   5      11.450   9.061   3.532  0.00  0.00    +0.241 C 
ATOM      8  O   GLN A   5      11.391   9.981   4.356  0.00  0.00    -0.273 OA
ATOM      9  N   ASN A   6      12.299   8.050   3.653  0.00  0.00    -0.297 N 
ATOM     10  H   ASN A   6      12.318   7.303   2.930  0.00  0.00    +0.150 HD
BRANCH   9  11
ATOM     11  CA  ASN A   6      13.203   7.978   4.789  0.00  0.00    +0.158 C 
BRANCH  11  12
ATOM     12  C   ASN A   6      14.449   7.158   4.476  0.00  0.00    +0.241 C 
ATOM     13  N   THR A   7      15.599   7.712   4.835  0.00  0.00    -0.296 N 
ATOM     14  H   THR A   7      15.579   8.643   5.298  0.00  0.00    +0.150 HD
ATOM     15  O   ASN A   6      14.369   6.052   3.933  0.00  0.00    -0.273 OA
BRANCH  13  16
ATOM     16  CA  THR A   7      16.887   7.076   4.610  0.00  0.00    +0.164 C 
BRANCH  16  17
ATOM     17  CB  THR A   7      17.923   8.113   4.066  0.00  0.00    +0.136 C 
ATOM     18  CG2 THR A   7      19.270   7.467   3.810  0.00  0.00    +0.034 C 
BRANCH  17  19
ATOM     19  OG1 THR A   7      17.433   8.684   2.847  0.00  0.00    -0.382 OA
ATOM     20  HG1 THR A   7      17.301   7.967   2.178  0.00  0.00    +0.210 HD
ENDBRANCH  17  19
ENDBRANCH  16  17
BRANCH  16  21
ATOM     21  C   THR A   7      17.468   6.448   5.881  0.00  0.00    +0.229 C 
ATOM     22  O   THR A   7      17.514   7.076   6.946  0.00  0.00    -0.286 OA
ENDBRANCH  16  21
ENDBRANCH  13  16
ENDBRANCH  11  12
BRANCH  11  23
ATOM     23  CB  ASN A   6      12.480   7.379   5.993  0.00  0.00    +0.114 C 
BRANCH  23  24
ATOM     24  CG  ASN A   6      13.347   7.377   7.238  0.00  0.00    +0.222 C 
ATOM     25  OD1 ASN A   6      13.574   8.427   7.850  0.00  0.00    -0.275 OA
ATOM     26  ND2 ASN A   6      13.845   6.201   7.614  0.00  0.00    -0.329 N 
ATOM     27 HD21 ASN A   6      14.453   6.139   8.455  0.00  0.00    +0.145 HD
ATOM     28 HD22 ASN A   6      13.626   5.344   7.067  0.00  0.00    +0.145 HD
ENDBRANCH  23  24
ENDBRANCH  11  23
ENDBRANCH   9  11
ENDBRANCH   6   7
BRANCH   6  29
ATOM     29  CB  GLN A   5      11.103  10.000   1.246  0.00  0.00    +0.039 C 
BRANCH  29  30
ATOM     30  CG  GLN A   5      11.722   9.291   0.074  0.00  0.00    +0.087 C 
BRANCH  30  31
ATOM     31  CD  GLN A   5      11.733  10.133  -1.175  0.00  0.00    +0.219 C 
ATOM     32  NE2 GLN A   5      10.565  10.647  -1.552  0.00  0.00    -0.329 N 
ATOM     33 HE21 GLN A   5       9.710  10.461  -0.990  0.00  0.00    +0.145 HD
ATOM     34 HE22 GLN A   5      10.507  11.234  -2.408  0.00  0.00    +0.145 HD
ATOM     35  OE1 GLN A   5      12.778  10.320  -1.802  0.00  0.00    -0.275 OA
ENDBRANCH  30  31
ENDBRANCH  29  30
ENDBRANCH   6  29
ENDBRANCH   3   6
ENDBRANCH   1   2
BRANCH   1  38
ATOM     36  C   LYS A   3       6.636   8.652   4.662  0.00  0.00    +0.241 C 
ATOM     37  O   LYS A   3       6.865   7.490   4.314  0.00  0.00    -0.273 OA
ATOM     38  N   ASN A   4       6.578   9.652   3.795  0.00  0.00    -0.297 N 
ATOM     39  H   ASN A   4       6.404  10.621   4.129  0.00  0.00    +0.150 HD
BRANCH  36  40
ATOM     40  CA  LYS A   3       6.402   9.003   6.133  0.00  0.00    +0.149 C 
BRANCH  40  42
ATOM     41  C   CYS A   2       4.151   8.077   6.189  0.00  0.00    +0.242 C 
ATOM     42  N   LYS A   3       5.393   8.096   6.665  0.00  0.00    -0.297 N 
ATOM     43  H   LYS A   3       5.650   7.447   7.436  0.00  0.00    +0.150 HD
ATOM     44  O   CYS A   2       3.754   8.841   5.301  0.00  0.00    -0.273 OA
BRANCH  41  45
ATOM     45  CA  CYS A   2       3.212   7.062   6.831  0.00  0.00    +0.160 C 
BRANCH  45  48
ATOM     46  C   ARG A   1       2.468   8.092   8.875  0.00  0.00    +0.238 C 
ATOM     47  O   ARG A   1       3.553   7.889   9.429  0.00  0.00    -0.274 OA
ATOM     48  N   CYS A   2       2.201   7.716   7.632  0.00  0.00    -0.297 N 
ATOM     49  H   CYS A   2       1.258   7.893   7.230  0.00  0.00    +0.150 HD
BRANCH  46  50
ATOM     50  CA  ARG A   1       1.340   8.766   9.614  0.00  0.00    +0.145 C 
BRANCH  50  51
ATOM     51  N   ARG A   1       1.483   8.362  10.998  0.00  0.00    -0.238 NA
ATOM     52  H   ARG A   1       2.222   7.674  11.248  0.00  0.00    +0.142 HD
ENDBRANCH  50  51
BRANCH  50  53
ATOM     53  CB  ARG A   1       1.429  10.294   9.472  0.00  0.00    +0.030 C 
BRANCH  53  54
ATOM     54  CG  ARG A   1       2.622  10.809   8.686  0.00  0.00    +0.045 C 
BRANCH  54  55
ATOM     55  CD  ARG A   1       2.840  12.299   8.930  0.00  0.00    +0.174 C 
BRANCH  55  56
ATOM     56  NE  ARG A   1       4.261  12.636   8.913  0.00  0.00    -0.265 N 
ATOM     57  HE  ARG A   1       4.694  12.968   9.798  0.00  0.00    +0.259 HD
ATOM     58  CZ  ARG A   1       5.036  12.545   7.836  0.00  0.00    +0.342 C 
ATOM     59  NH2 ARG A   1       6.321  12.870   7.907  0.00  0.00    -0.292 N 
ATOM     60 HH21 ARG A   1       6.726  13.197   8.807  0.00  0.00    +0.255 HD
ATOM     61 HH22 ARG A   1       6.923  12.797   7.062  0.00  0.00    +0.255 HD
ATOM     62  NH1 ARG A   1       4.522  12.132   6.681  0.00  0.00    -0.292 N 
ATOM     63 HH11 ARG A   1       3.515  11.880   6.620  0.00  0.00    +0.255 HD
ATOM     64 HH12 ARG A   1       5.127  12.061   5.838  0.00  0.00    +0.255 HD
ENDBRANCH  55  56
ENDBRANCH  54  55
ENDBRANCH  53  54
ENDBRANCH  50  53
ENDBRANCH  46  50
ENDBRANCH  45  48
BRANCH  45  65
ATOM     65  CB  CYS A   2       2.536   6.190   5.774  0.00  0.00    +0.098 C 
ATOM     66  SG  CYS A   2       1.647   4.799   6.550  0.00  0.00    -0.080 S 
ENDBRANCH  45  65
ENDBRANCH  41  45
ENDBRANCH  40  42
BRANCH  40  67
ATOM     67  CB  LYS A   3       7.695   8.860   6.934  0.00  0.00    +0.029 C 
BRANCH  67  68
ATOM     68  CG  LYS A   3       8.650  10.017   6.771  0.00  0.00    +0.000 C 
BRANCH  68  69
ATOM     69  CD  LYS A   3       9.905   9.798   7.606  0.00  0.00    -0.024 C 
BRANCH  69  70
ATOM     70  CE  LYS A   3      10.948  10.893   7.399  0.00  0.00    -0.086 C 
BRANCH  70  71
ATOM     71  NZ  LYS A   3      12.140  10.686   8.276  0.00  0.00    +0.380 N 
ATOM     72  HZ1 LYS A   3      11.842  10.698   9.272  0.00  0.00    -0.089 HD
ATOM     73  HZ2 LYS A   3      12.828  11.448   8.109  0.00  0.00    -0.089 HD
ATOM     74  HZ3 LYS A   3      12.577   9.768   8.055  0.00  0.00    -0.089 HD
ENDBRANCH  70  71
ENDBRANCH  69  70
ENDBRANCH  68  69
ENDBRANCH  67  68
ENDBRANCH  40  67
ENDBRANCH  36  40
ENDBRANCH   1  38
BRANCH   1  75
ATOM     75  CB  ASN A   4       6.419  10.640   1.569  0.00  0.00    +0.114 C 
BRANCH  75  76
ATOM     76  CG  ASN A   4       6.008  10.300   0.175  0.00  0.00    +0.222 C 
ATOM     77  ND2 ASN A   4       4.888   9.598   0.049  0.00  0.00    -0.329 N 
ATOM     78 HD21 ASN A   4       4.341   9.336   0.894  0.00  0.00    +0.145 HD
ATOM     79 HD22 ASN A   4       4.558   9.310  -0.894  0.00  0.00    +0.145 HD
ATOM     80  OD1 ASN A   4       6.695  10.637  -0.789  0.00  0.00    -0.275 OA
ENDBRANCH  75  76
ENDBRANCH   1  75
TORSDOF 33
REMARK  Name = ../refined-set-2016/1hi5/1hi5_pocket.pdb
REMARK  143 active torsions:
REMARK  status: ('A' for Active; 'I' for Inactive)
REMARK    1  A    between atoms: _1  and  _5
REMARK    2  A    between atoms: _5  and  _6
REMARK    3  A    between atoms: _5  and  _8
REMARK    4  A    between atoms: _8  and  _9
REMARK    5  A    between atoms: _9  and  _10
REMARK    6  A    between atoms: _12  and  _14
REMARK    7  A    between atoms: _14  and  _15
REMARK    8  A    between atoms: _14  and  _17
REMARK    9  A    between atoms: _17  and  _18
REMARK   10  A    between atoms: _18  and  _19
REMARK   11  A    between atoms: _19  and  _20
REMARK   12  A    between atoms: _20  and  _21
REMARK   13  A    between atoms: _25  and  _27
REMARK   14  A    between atoms: _27  and  _28
REMARK   15  A    between atoms: _27  and  _30
REMARK   16  A    between atoms: _30  and  _31
REMARK   17  A    between atoms: _41  and  _43
REMARK   18  A    between atoms: _43  and  _44
REMARK   19  A    between atoms: _43  and  _46
REMARK   20  A    between atoms: _46  and  _47
REMARK   21  A    between atoms: _57  and  _59
REMARK   22  A    between atoms: _59  and  _60
REMARK   23  A    between atoms: _59  and  _62
REMARK   24  A    between atoms: _62  and  _63
REMARK   25  A    between atoms: _69  and  _71
REMARK   26  A    between atoms: _71  and  _72
REMARK   27  A    between atoms: _71  and  _74
REMARK   28  A    between atoms: _74  and  _75
REMARK   29  A    between atoms: _75  and  _76
REMARK   30  A    between atoms: _81  and  _83
REMARK   31  A    between atoms: _83  and  _84
REMARK   32  A    between atoms: _83  and  _86
REMARK   33  A    between atoms: _86  and  _87
REMARK   34  A    between atoms: _92  and  _94
REMARK   35  A    between atoms: _94  and  _95
REMARK   36  A    between atoms: _94  and  _97
REMARK   37  A    between atoms: _97  and  _98
REMARK   38  A    between atoms: _98  and  _99
REMARK   39  A    between atoms: _101  and  _103
REMARK   40  A    between atoms: _103  and  _104
REMARK   41  A    between atoms: _103  and  _106
REMARK   42  A    between atoms: _106  and  _107
REMARK   43  A    between atoms: _110  and  _112
REMARK   44  A    between atoms: _112  and  _113
REMARK   45  A    between atoms: _112  and  _115
REMARK   46  A    between atoms: _115  and  _116
REMARK   47  A    between atoms: _116  and  _117
REMARK   48  A    between atoms: _122  and  _124
REMARK   49  A    between atoms: _124  and  _125
REMARK   50  A    between atoms: _124  and  _127
REMARK   51  A    between atoms: _127  and  _128
REMARK   52  A    between atoms: _128  and  _129
REMARK   53  A    between atoms: _129  and  _130
REMARK   54  A    between atoms: _139  and  _141
REMARK   55  A    between atoms: _141  and  _142
REMARK   56  A    between atoms: _141  and  _144
REMARK   57  A    between atoms: _146  and  _148
REMARK   58  A    between atoms: _148  and  _149
REMARK   59  A    between atoms: _148  and  _151
REMARK   60  A    between atoms: _151  and  _152
REMARK   61  A    between atoms: _152  and  _153
REMARK   62  A    between atoms: _153  and  _154
REMARK   63  A    between atoms: _154  and  _155
REMARK   64  A    between atoms: _159  and  _161
REMARK   65  A    between atoms: _161  and  _162
REMARK   66  A    between atoms: _161  and  _164
REMARK   67  A    between atoms: _164  and  _165
REMARK   68  A    between atoms: _170  and  _172
REMARK   69  A    between atoms: _172  and  _173
REMARK   70  A    between atoms: _172  and  _175
REMARK   71  A    between atoms: _175  and  _176
REMARK   72  A    between atoms: _176  and  _177
REMARK   73  A    between atoms: _182  and  _184
REMARK   74  A    between atoms: _184  and  _185
REMARK   75  A    between atoms: _184  and  _187
REMARK   76  A    between atoms: _187  and  _188
REMARK   77  A    between atoms: _193  and  _195
REMARK   78  A    between atoms: _195  and  _196
REMARK   79  A    between atoms: _195  and  _198
REMARK   80  A    between atoms: _198  and  _199
REMARK   81  A    between atoms: _202  and  _204
REMARK   82  A    between atoms: _204  and  _205
REMARK   83  A    between atoms: _204  and  _207
REMARK   84  A    between atoms: _207  and  _208
REMARK   85  A    between atoms: _210  and  _212
REMARK   86  A    between atoms: _212  and  _213
REMARK   87  A    between atoms: _212  and  _215
REMARK   88  A    between atoms: _215  and  _216
REMARK   89  A    between atoms: _221  and  _223
REMARK   90  A    between atoms: _223  and  _224
REMARK   91  A    between atoms: _223  and  _226
REMARK   92  A    between atoms: _228  and  _230
REMARK   93  A    between atoms: _230  and  _231
REMARK   94  A    between atoms: _230  and  _233
REMARK   95  A    between atoms: _233  and  _234
REMARK   96  A    between atoms: _239  and  _241
REMARK   97  A    between atoms: _241  and  _242
REMARK   98  A    between atoms: _241  and  _244
REMARK   99  A    between atoms: _244  and  _245
REMARK  100  A    between atoms: _248  and  _250
REMARK  101  A    between atoms: _250  and  _251
REMARK  102  A    between atoms: _250  and  _253
REMARK  103  A    between atoms: _253  and  _254
REMARK  104  A    between atoms: _259  and  _260
REMARK  105  A    between atoms: _262  and  _264
REMARK  106  A    between atoms: _264  and  _265
REMARK  107  A    between atoms: _264  and  _267
REMARK  108  A    between atoms: _267  and  _268
REMARK  109  A    between atoms: _268  and  _269
REMARK  110  A    between atoms: _271  and  _273
REMARK  111  A    between atoms: _273  and  _274
REMARK  112  A    between atoms: _273  and  _276
REMARK  113  A    between atoms: _276  and  _277
REMARK  114  A    between atoms: _280  and  _282
REMARK  115  A    between atoms: _282  and  _283
REMARK  116  A    between atoms: _282  and  _285
REMARK  117  A    between atoms: _288  and  _290
REMARK  118  A    between atoms: _290  and  _291
REMARK  119  A    between atoms: _294  and  _296
REMARK  120  A    between atoms: _296  and  _297
REMARK  121  A    between atoms: _296  and  _299
REMARK  122  A    between atoms: _302  and  _304
REMARK  123  A    between atoms: _304  and  _305
REMARK  124  A    between atoms: _304  and  _307
REMARK  125  A    between atoms: _307  and  _308
REMARK  126  A    between atoms: _313  and  _315
REMARK  127  A    between atoms: _315  and  _316
REMARK  128  A    between atoms: _315  and  _318
REMARK  129  A    between atoms: _318  and  _319
REMARK  130  A    between atoms: _322  and  _324
REMARK  131  A    between atoms: _324  and  _325
REMARK  132  A    between atoms: _324  and  _327
REMARK  133  A    between atoms: _327  and  _328
REMARK  134  A    between atoms: _331  and  _333
REMARK  135  A    between atoms: _333  and  _334
REMARK  136  A    between atoms: _333  and  _336
REMARK  137  A    between atoms: _336  and  _337
REMARK  138  A    between atoms: _337  and  _338
REMARK  139  A    between atoms: _338  and  _339
REMARK  140  A    between atoms: _348  and  _350
REMARK  141  A    between atoms: _350  and  _351
REMARK  142  A    between atoms: _350  and  _353
REMARK  143  A    between atoms: _353  and  _354
REMARK                            x       y       z     vdW  Elec       q    Type
REMARK                         _______ _______ _______ _____ _____    ______ ____
ROOT
ATOM      1  CA  SER A   1      17.905  21.679   3.133  0.00  0.00    +0.163 C 
ENDROOT
BRANCH   1   2
ATOM      2  N   SER A   1      19.362  21.646   2.980  0.00  0.00    -0.237 NA
ATOM      3  H   SER A   1      19.923  21.071   3.641  0.00  0.00    +0.142 HD
ENDBRANCH   1   2
BRANCH   1   4
ATOM      4  C   SER A   1      17.316  22.886   3.878  0.00  0.00    +0.227 C 
ATOM      5  O   SER A   1      16.105  23.114   3.825  0.00  0.00    -0.287 OA
ENDBRANCH   1   4
BRANCH   1   6
ATOM      6  CB  SER A   1      17.426  20.387   3.784  0.00  0.00    +0.162 C 
BRANCH   6   7
ATOM      7  OG  SER A   1      17.557  19.311   2.869  0.00  0.00    -0.380 OA
ATOM      8  H   SER A   1      17.244  18.475   3.297  0.00  0.00    +0.211 HD
ENDBRANCH   6   7
ENDBRANCH   1   6
TORSDOF 4
REMARK  Name = ../refined-set-2016/1hi5/1hi5_pocket.pdb
REMARK  143 active torsions:
REMARK  status: ('A' for Active; 'I' for Inactive)
REMARK    1  A    between atoms: _1  and  _5
REMARK    2  A    between atoms: _5  and  _6
REMARK    3  A    between atoms: _5  and  _8
REMARK    4  A    between atoms: _8  and  _9
REMARK    5  A    between atoms: _9  and  _10
REMARK    6  A    between atoms: _12  and  _14
REMARK    7  A    between atoms: _14  and  _15
REMARK    8  A    between atoms: _14  and  _17
REMARK    9  A    between atoms: _17  and  _18
REMARK   10  A    between atoms: _18  and  _19
REMARK   11  A    between atoms: _19  and  _20
REMARK   12  A    between atoms: _20  and  _21
REMARK   13  A    between atoms: _25  and  _27
REMARK   14  A    between atoms: _27  and  _28
REMARK   15  A    between atoms: _27  and  _30
REMARK   16  A    between atoms: _30  and  _31
REMARK   17  A    between atoms: _41  and  _43
REMARK   18  A    between atoms: _43  and  _44
REMARK   19  A    between atoms: _43  and  _46
REMARK   20  A    between atoms: _46  and  _47
REMARK   21  A    between atoms: _57  and  _59
REMARK   22  A    between atoms: _59  and  _60
REMARK   23  A    between atoms: _59  and  _62
REMARK   24  A    between atoms: _62  and  _63
REMARK   25  A    between atoms: _69  and  _71
REMARK   26  A    between atoms: _71  and  _72
REMARK   27  A    between atoms: _71  and  _74
REMARK   28  A    between atoms: _74  and  _75
REMARK   29  A    between atoms: _75  and  _76
REMARK   30  A    between atoms: _81  and  _83
REMARK   31  A    between atoms: _83  and  _84
REMARK   32  A    between atoms: _83  and  _86
REMARK   33  A    between atoms: _86  and  _87
REMARK   34  A    between atoms: _92  and  _94
REMARK   35  A    between atoms: _94  and  _95
REMARK   36  A    between atoms: _94  and  _97
REMARK   37  A    between atoms: _97  and  _98
REMARK   38  A    between atoms: _98  and  _99
REMARK   39  A    between atoms: _101  and  _103
REMARK   40  A    between atoms: _103  and  _104
REMARK   41  A    between atoms: _103  and  _106
REMARK   42  A    between atoms: _106  and  _107
REMARK   43  A    between atoms: _110  and  _112
REMARK   44  A    between atoms: _112  and  _113
REMARK   45  A    between atoms: _112  and  _115
REMARK   46  A    between atoms: _115  and  _116
REMARK   47  A    between atoms: _116  and  _117
REMARK   48  A    between atoms: _122  and  _124
REMARK   49  A    between atoms: _124  and  _125
REMARK   50  A    between atoms: _124  and  _127
REMARK   51  A    between atoms: _127  and  _128
REMARK   52  A    between atoms: _128  and  _129
REMARK   53  A    between atoms: _129  and  _130
REMARK   54  A    between atoms: _139  and  _141
REMARK   55  A    between atoms: _141  and  _142
REMARK   56  A    between atoms: _141  and  _144
REMARK   57  A    between atoms: _146  and  _148
REMARK   58  A    between atoms: _148  and  _149
REMARK   59  A    between atoms: _148  and  _151
REMARK   60  A    between atoms: _151  and  _152
REMARK   61  A    between atoms: _152  and  _153
REMARK   62  A    between atoms: _153  and  _154
REMARK   63  A    between atoms: _154  and  _155
REMARK   64  A    between atoms: _159  and  _161
REMARK   65  A    between atoms: _161  and  _162
REMARK   66  A    between atoms: _161  and  _164
REMARK   67  A    between atoms: _164  and  _165
REMARK   68  A    between atoms: _170  and  _172
REMARK   69  A    between atoms: _172  and  _173
REMARK   70  A    between atoms: _172  and  _175
REMARK   71  A    between atoms: _175  and  _176
REMARK   72  A    between atoms: _176  and  _177
REMARK   73  A    between atoms: _182  and  _184
REMARK   74  A    between atoms: _184  and  _185
REMARK   75  A    between atoms: _184  and  _187
REMARK   76  A    between atoms: _187  and  _188
REMARK   77  A    between atoms: _193  and  _195
REMARK   78  A    between atoms: _195  and  _196
REMARK   79  A    between atoms: _195  and  _198
REMARK   80  A    between atoms: _198  and  _199
REMARK   81  A    between atoms: _202  and  _204
REMARK   82  A    between atoms: _204  and  _205
REMARK   83  A    between atoms: _204  and  _207
REMARK   84  A    between atoms: _207  and  _208
REMARK   85  A    between atoms: _210  and  _212
REMARK   86  A    between atoms: _212  and  _213
REMARK   87  A    between atoms: _212  and  _215
REMARK   88  A    between atoms: _215  and  _216
REMARK   89  A    between atoms: _221  and  _223
REMARK   90  A    between atoms: _223  and  _224
REMARK   91  A    between atoms: _223  and  _226
REMARK   92  A    between atoms: _228  and  _230
REMARK   93  A    between atoms: _230  and  _231
REMARK   94  A    between atoms: _230  and  _233
REMARK   95  A    between atoms: _233  and  _234
REMARK   96  A    between atoms: _239  and  _241
REMARK   97  A    between atoms: _241  and  _242
REMARK   98  A    between atoms: _241  and  _244
REMARK   99  A    between atoms: _244  and  _245
REMARK  100  A    between atoms: _248  and  _250
REMARK  101  A    between atoms: _250  and  _251
REMARK  102  A    between atoms: _250  and  _253
REMARK  103  A    between atoms: _253  and  _254
REMARK  104  A    between atoms: _259  and  _260
REMARK  105  A    between atoms: _262  and  _264
REMARK  106  A    between atoms: _264  and  _265
REMARK  107  A    between atoms: _264  and  _267
REMARK  108  A    between atoms: _267  and  _268
REMARK  109  A    between atoms: _268  and  _269
REMARK  110  A    between atoms: _271  and  _273
REMARK  111  A    between atoms: _273  and  _274
REMARK  112  A    between atoms: _273  and  _276
REMARK  113  A    between atoms: _276  and  _277
REMARK  114  A    between atoms: _280  and  _282
REMARK  115  A    between atoms: _282  and  _283
REMARK  116  A    between atoms: _282  and  _285
REMARK  117  A    between atoms: _288  and  _290
REMARK  118  A    between atoms: _290  and  _291
REMARK  119  A    between atoms: _294  and  _296
REMARK  120  A    between atoms: _296  and  _297
REMARK  121  A    between atoms: _296  and  _299
REMARK  122  A    between atoms: _302  and  _304
REMARK  123  A    between atoms: _304  and  _305
REMARK  124  A    between atoms: _304  and  _307
REMARK  125  A    between atoms: _307  and  _308
REMARK  126  A    between atoms: _313  and  _315
REMARK  127  A    between atoms: _315  and  _316
REMARK  128  A    between atoms: _315  and  _318
REMARK  129  A    between atoms: _318  and  _319
REMARK  130  A    between atoms: _322  and  _324
REMARK  131  A    between atoms: _324  and  _325
REMARK  132  A    between atoms: _324  and  _327
REMARK  133  A    between atoms: _327  and  _328
REMARK  134  A    between atoms: _331  and  _333
REMARK  135  A    between atoms: _333  and  _334
REMARK  136  A    between atoms: _333  and  _336
REMARK  137  A    between atoms: _336  and  _337
REMARK  138  A    between atoms: _337  and  _338
REMARK  139  A    between atoms: _338  and  _339
REMARK  140  A    between atoms: _348  and  _350
REMARK  141  A    between atoms: _350  and  _351
REMARK  142  A    between atoms: _350  and  _353
REMARK  143  A    between atoms: _353  and  _354
REMARK                            x       y       z     vdW  Elec       q    Type
REMARK                         _______ _______ _______ _____ _____    ______ ____
ROOT
ATOM      1  C   CYS A   2      11.680   4.855   0.996  0.00  0.00    +0.242 C 
ATOM      2  O   CYS A   2      11.675   6.032   1.346  0.00  0.00    -0.273 OA
ATOM      3  N   ASN A   3      10.870   4.369   0.061  0.00  0.00    -0.297 N 
ATOM      4  H   ASN A   3      10.927   3.357  -0.171  0.00  0.00    +0.150 HD
ENDROOT
BRANCH   1   5
ATOM      5  CA  CYS A   2      12.632   3.849   1.640  0.00  0.00    +0.160 C 
BRANCH   5   7
ATOM      6  C   HIS A   1      14.907   4.057   0.788  0.00  0.00    +0.239 C 
ATOM      7  N   CYS A   2      14.001   4.345   1.711  0.00  0.00    -0.296 N 
ATOM      8  H   CYS A   2      14.276   4.946   2.514  0.00  0.00    +0.150 HD
ATOM      9  O   HIS A   1      14.659   3.360  -0.191  0.00  0.00    -0.274 OA
BRANCH   6  10
ATOM     10  CA  HIS A   1      16.313   4.636   1.026  0.00  0.00    +0.151 C 
BRANCH  10  11
ATOM     11  N   HIS A   1      17.316   3.584   1.085  0.00  0.00    -0.238 NA
ATOM     12  H   HIS A   1      17.630   3.123   0.207  0.00  0.00    +0.142 HD
ENDBRANCH  10  11
BRANCH  10  13
ATOM     13  CB  HIS A   1      16.646   5.641  -0.061  0.00  0.00    +0.074 C 
BRANCH  13  14
ATOM     14  CG  HIS A   1      15.791   6.860   0.000  0.00  0.00    +0.082 A 
ATOM     15  ND1 HIS A   1      15.896   7.786   1.012  0.00  0.00    -0.227 NA
ATOM     16  CE1 HIS A   1      14.975   8.719   0.851  0.00  0.00    +0.199 A 
ATOM     17  NE2 HIS A   1      14.277   8.431  -0.231  0.00  0.00    -0.221 NA
ATOM     18  CD2 HIS A   1      14.768   7.274  -0.783  0.00  0.00    +0.115 A 
ENDBRANCH  13  14
ENDBRANCH  10  13
ENDBRANCH   6  10
ENDBRANCH   5   7
BRANCH   5  19
ATOM     19  CB  CYS A   2      12.132   3.495   3.045  0.00  0.00    +0.098 C 
ATOM     20  SG  CYS A   2      13.188   2.320   3.961  0.00  0.00    -0.080 S 
ENDBRANCH   5  19
ENDBRANCH   1   5
BRANCH   3  21
ATOM     21  CA  ASN A   3       9.903   5.199  -0.654  0.00  0.00    +0.158 C 
BRANCH  21  22
ATOM     22  C   ASN A   3       8.516   4.615  -0.508  0.00  0.00    +0.241 C 
ATOM     23  N   LEU A   4       7.577   5.428  -0.046  0.00  0.00    -0.298 N 
ATOM     24  H   LEU A   4       7.820   6.406   0.210  0.00  0.00    +0.150 HD
ATOM     25  O   ASN A   3       8.291   3.435  -0.814  0.00  0.00    -0.273 OA
BRANCH  23  26
ATOM     26  CA  LEU A   4       6.206   4.960   0.105  0.00  0.00    +0.137 C 
BRANCH  26  27
ATOM     27  C   LEU A   4       5.669   4.598  -1.289  0.00  0.00    +0.227 C 
ATOM     28  O   LEU A   4       5.718   5.414  -2.213  0.00  0.00    -0.286 OA
ENDBRANCH  26  27
BRANCH  26  29
ATOM     29  CB  LEU A   4       5.339   6.060   0.733  0.00  0.00    +0.028 C 
BRANCH  29  30
ATOM     30  CG  LEU A   4       3.878   5.695   0.939  0.00  0.00    +0.002 C 
ATOM     31  CD2 LEU A   4       3.731   4.643   2.038  0.00  0.00    +0.000 C 
ATOM     32  CD1 LEU A   4       3.119   6.971   1.288  0.00  0.00    +0.000 C 
ENDBRANCH  29  30
ENDBRANCH  26  29
ENDBRANCH  23  26
ENDBRANCH  21  22
BRANCH  21  33
ATOM     33  CB  ASN A   3      10.249   5.257  -2.143  0.00  0.00    +0.114 C 
BRANCH  33  34
ATOM     34  CG  ASN A   3      11.306   6.290  -2.452  0.00  0.00    +0.222 C 
ATOM     35  OD1 ASN A   3      11.007   7.483  -2.563  0.00  0.00    -0.275 OA
ATOM     36  ND2 ASN A   3      12.552   5.842  -2.601  0.00  0.00    -0.329 N 
ATOM     37 HD21 ASN A   3      12.756   4.827  -2.498  0.00  0.00    +0.145 HD
ATOM     38 HD22 ASN A   3      13.321   6.507  -2.820  0.00  0.00    +0.145 HD
ENDBRANCH  33  34
ENDBRANCH  21  33
ENDBRANCH   3  21
TORSDOF 15
REMARK  Name = ../refined-set-2016/1hi5/1hi5_pocket.pdb
REMARK  143 active torsions:
REMARK  status: ('A' for Active; 'I' for Inactive)
REMARK    1  A    between atoms: _1  and  _5
REMARK    2  A    between atoms: _5  and  _6
REMARK    3  A    between atoms: _5  and  _8
REMARK    4  A    between atoms: _8  and  _9
REMARK    5  A    between atoms: _9  and  _10
REMARK    6  A    between atoms: _12  and  _14
REMARK    7  A    between atoms: _14  and  _15
REMARK    8  A    between atoms: _14  and  _17
REMARK    9  A    between atoms: _17  and  _18
REMARK   10  A    between atoms: _18  and  _19
REMARK   11  A    between atoms: _19  and  _20
REMARK   12  A    between atoms: _20  and  _21
REMARK   13  A    between atoms: _25  and  _27
REMARK   14  A    between atoms: _27  and  _28
REMARK   15  A    between atoms: _27  and  _30
REMARK   16  A    between atoms: _30  and  _31
REMARK   17  A    between atoms: _41  and  _43
REMARK   18  A    between atoms: _43  and  _44
REMARK   19  A    between atoms: _43  and  _46
REMARK   20  A    between atoms: _46  and  _47
REMARK   21  A    between atoms: _57  and  _59
REMARK   22  A    between atoms: _59  and  _60
REMARK   23  A    between atoms: _59  and  _62
REMARK   24  A    between atoms: _62  and  _63
REMARK   25  A    between atoms: _69  and  _71
REMARK   26  A    between atoms: _71  and  _72
REMARK   27  A    between atoms: _71  and  _74
REMARK   28  A    between atoms: _74  and  _75
REMARK   29  A    between atoms: _75  and  _76
REMARK   30  A    between atoms: _81  and  _83
REMARK   31  A    between atoms: _83  and  _84
REMARK   32  A    between atoms: _83  and  _86
REMARK   33  A    between atoms: _86  and  _87
REMARK   34  A    between atoms: _92  and  _94
REMARK   35  A    between atoms: _94  and  _95
REMARK   36  A    between atoms: _94  and  _97
REMARK   37  A    between atoms: _97  and  _98
REMARK   38  A    between atoms: _98  and  _99
REMARK   39  A    between atoms: _101  and  _103
REMARK   40  A    between atoms: _103  and  _104
REMARK   41  A    between atoms: _103  and  _106
REMARK   42  A    between atoms: _106  and  _107
REMARK   43  A    between atoms: _110  and  _112
REMARK   44  A    between atoms: _112  and  _113
REMARK   45  A    between atoms: _112  and  _115
REMARK   46  A    between atoms: _115  and  _116
REMARK   47  A    between atoms: _116  and  _117
REMARK   48  A    between atoms: _122  and  _124
REMARK   49  A    between atoms: _124  and  _125
REMARK   50  A    between atoms: _124  and  _127
REMARK   51  A    between atoms: _127  and  _128
REMARK   52  A    between atoms: _128  and  _129
REMARK   53  A    between atoms: _129  and  _130
REMARK   54  A    between atoms: _139  and  _141
REMARK   55  A    between atoms: _141  and  _142
REMARK   56  A    between atoms: _141  and  _144
REMARK   57  A    between atoms: _146  and  _148
REMARK   58  A    between atoms: _148  and  _149
REMARK   59  A    between atoms: _148  and  _151
REMARK   60  A    between atoms: _151  and  _152
REMARK   61  A    between atoms: _152  and  _153
REMARK   62  A    between atoms: _153  and  _154
REMARK   63  A    between atoms: _154  and  _155
REMARK   64  A    between atoms: _159  and  _161
REMARK   65  A    between atoms: _161  and  _162
REMARK   66  A    between atoms: _161  and  _164
REMARK   67  A    between atoms: _164  and  _165
REMARK   68  A    between atoms: _170  and  _172
REMARK   69  A    between atoms: _172  and  _173
REMARK   70  A    between atoms: _172  and  _175
REMARK   71  A    between atoms: _175  and  _176
REMARK   72  A    between atoms: _176  and  _177
REMARK   73  A    between atoms: _182  and  _184
REMARK   74  A    between atoms: _184  and  _185
REMARK   75  A    between atoms: _184  and  _187
REMARK   76  A    between atoms: _187  and  _188
REMARK   77  A    between atoms: _193  and  _195
REMARK   78  A    between atoms: _195  and  _196
REMARK   79  A    between atoms: _195  and  _198
REMARK   80  A    between atoms: _198  and  _199
REMARK   81  A    between atoms: _202  and  _204
REMARK   82  A    between atoms: _204  and  _205
REMARK   83  A    between atoms: _204  and  _207
REMARK   84  A    between atoms: _207  and  _208
REMARK   85  A    between atoms: _210  and  _212
REMARK   86  A    between atoms: _212  and  _213
REMARK   87  A    between atoms: _212  and  _215
REMARK   88  A    between atoms: _215  and  _216
REMARK   89  A    between atoms: _221  and  _223
REMARK   90  A    between atoms: _223  and  _224
REMARK   91  A    between atoms: _223  and  _226
REMARK   92  A    between atoms: _228  and  _230
REMARK   93  A    between atoms: _230  and  _231
REMARK   94  A    between atoms: _230  and  _233
REMARK   95  A    between atoms: _233  and  _234
REMARK   96  A    between atoms: _239  and  _241
REMARK   97  A    between atoms: _241  and  _242
REMARK   98  A    between atoms: _241  and  _244
REMARK   99  A    between atoms: _244  and  _245
REMARK  100  A    between atoms: _248  and  _250
REMARK  101  A    between atoms: _250  and  _251
REMARK  102  A    between atoms: _250  and  _253
REMARK  103  A    between atoms: _253  and  _254
REMARK  104  A    between atoms: _259  and  _260
REMARK  105  A    between atoms: _262  and  _264
REMARK  106  A    between atoms: _264  and  _265
REMARK  107  A    between atoms: _264  and  _267
REMARK  108  A    between atoms: _267  and  _268
REMARK  109  A    between atoms: _268  and  _269
REMARK  110  A    between atoms: _271  and  _273
REMARK  111  A    between atoms: _273  and  _274
REMARK  112  A    between atoms: _273  and  _276
REMARK  113  A    between atoms: _276  and  _277
REMARK  114  A    between atoms: _280  and  _282
REMARK  115  A    between atoms: _282  and  _283
REMARK  116  A    between atoms: _282  and  _285
REMARK  117  A    between atoms: _288  and  _290
REMARK  118  A    between atoms: _290  and  _291
REMARK  119  A    between atoms: _294  and  _296
REMARK  120  A    between atoms: _296  and  _297
REMARK  121  A    between atoms: _296  and  _299
REMARK  122  A    between atoms: _302  and  _304
REMARK  123  A    between atoms: _304  and  _305
REMARK  124  A    between atoms: _304  and  _307
REMARK  125  A    between atoms: _307  and  _308
REMARK  126  A    between atoms: _313  and  _315
REMARK  127  A    between atoms: _315  and  _316
REMARK  128  A    between atoms: _315  and  _318
REMARK  129  A    between atoms: _318  and  _319
REMARK  130  A    between atoms: _322  and  _324
REMARK  131  A    between atoms: _324  and  _325
REMARK  132  A    between atoms: _324  and  _327
REMARK  133  A    between atoms: _327  and  _328
REMARK  134  A    between atoms: _331  and  _333
REMARK  135  A    between atoms: _333  and  _334
REMARK  136  A    between atoms: _333  and  _336
REMARK  137  A    between atoms: _336  and  _337
REMARK  138  A    between atoms: _337  and  _338
REMARK  139  A    between atoms: _338  and  _339
REMARK  140  A    between atoms: _348  and  _350
REMARK  141  A    between atoms: _350  and  _351
REMARK  142  A    between atoms: _350  and  _353
REMARK  143  A    between atoms: _353  and  _354
REMARK                            x       y       z     vdW  Elec       q    Type
REMARK                         _______ _______ _______ _____ _____    ______ ____
ROOT
ATOM      1  CG  TYR A   1       7.769   2.266   2.697  0.00  0.00    -0.020 A 
ATOM      2  CD2 TYR A   1       6.777   1.920   3.624  0.00  0.00    -0.001 A 
ATOM      3  CE2 TYR A   1       6.191   2.885   4.432  0.00  0.00    +0.036 A 
ATOM      4  CZ  TYR A   1       6.604   4.213   4.314  0.00  0.00    +0.134 A 
ATOM      5  CE1 TYR A   1       7.584   4.573   3.404  0.00  0.00    +0.036 A 
ATOM      6  CD1 TYR A   1       8.158   3.604   2.605  0.00  0.00    -0.001 A 
ENDROOT
BRANCH   4   7
ATOM      7  OH  TYR A   1       6.048   5.189   5.106  0.00  0.00    -0.506 OA
ATOM      8  HH  TYR A   1       5.620   5.873   4.533  0.00  0.00    +0.292 HD
ENDBRANCH   4   7
BRANCH   1   9
ATOM      9  CB  TYR A   1       8.405   1.221   1.814  0.00  0.00    +0.051 C 
BRANCH   9  10
ATOM     10  CA  TYR A   1       7.550   0.762   0.629  0.00  0.00    +0.137 C 
BRANCH  10  11
ATOM     11  N   TYR A   1       6.434  -0.048   1.103  0.00  0.00    -0.239 NA
ATOM     12  H   TYR A   1       6.616  -1.013   1.447  0.00  0.00    +0.142 HD
ENDBRANCH  10  11
BRANCH  10  13
ATOM     13  C   TYR A   1       8.471   0.017  -0.326  0.00  0.00    +0.224 C 
ATOM     14  O   TYR A   1       8.503  -1.208  -0.357  0.00  0.00    -0.287 OA
ENDBRANCH  10  13
ENDBRANCH   9  10
ENDBRANCH   1   9
TORSDOF 5
REMARK  Name = ../refined-set-2016/1hi5/1hi5_pocket.pdb
REMARK  143 active torsions:
REMARK  status: ('A' for Active; 'I' for Inactive)
REMARK    1  A    between atoms: _1  and  _5
REMARK    2  A    between atoms: _5  and  _6
REMARK    3  A    between atoms: _5  and  _8
REMARK    4  A    between atoms: _8  and  _9
REMARK    5  A    between atoms: _9  and  _10
REMARK    6  A    between atoms: _12  and  _14
REMARK    7  A    between atoms: _14  and  _15
REMARK    8  A    between atoms: _14  and  _17
REMARK    9  A    between atoms: _17  and  _18
REMARK   10  A    between atoms: _18  and  _19
REMARK   11  A    between atoms: _19  and  _20
REMARK   12  A    between atoms: _20  and  _21
REMARK   13  A    between atoms: _25  and  _27
REMARK   14  A    between atoms: _27  and  _28
REMARK   15  A    between atoms: _27  and  _30
REMARK   16  A    between atoms: _30  and  _31
REMARK   17  A    between atoms: _41  and  _43
REMARK   18  A    between atoms: _43  and  _44
REMARK   19  A    between atoms: _43  and  _46
REMARK   20  A    between atoms: _46  and  _47
REMARK   21  A    between atoms: _57  and  _59
REMARK   22  A    between atoms: _59  and  _60
REMARK   23  A    between atoms: _59  and  _62
REMARK   24  A    between atoms: _62  and  _63
REMARK   25  A    between atoms: _69  and  _71
REMARK   26  A    between atoms: _71  and  _72
REMARK   27  A    between atoms: _71  and  _74
REMARK   28  A    between atoms: _74  and  _75
REMARK   29  A    between atoms: _75  and  _76
REMARK   30  A    between atoms: _81  and  _83
REMARK   31  A    between atoms: _83  and  _84
REMARK   32  A    between atoms: _83  and  _86
REMARK   33  A    between atoms: _86  and  _87
REMARK   34  A    between atoms: _92  and  _94
REMARK   35  A    between atoms: _94  and  _95
REMARK   36  A    between atoms: _94  and  _97
REMARK   37  A    between atoms: _97  and  _98
REMARK   38  A    between atoms: _98  and  _99
REMARK   39  A    between atoms: _101  and  _103
REMARK   40  A    between atoms: _103  and  _104
REMARK   41  A    between atoms: _103  and  _106
REMARK   42  A    between atoms: _106  and  _107
REMARK   43  A    between atoms: _110  and  _112
REMARK   44  A    between atoms: _112  and  _113
REMARK   45  A    between atoms: _112  and  _115
REMARK   46  A    between atoms: _115  and  _116
REMARK   47  A    between atoms: _116  and  _117
REMARK   48  A    between atoms: _122  and  _124
REMARK   49  A    between atoms: _124  and  _125
REMARK   50  A    between atoms: _124  and  _127
REMARK   51  A    between atoms: _127  and  _128
REMARK   52  A    between atoms: _128  and  _129
REMARK   53  A    between atoms: _129  and  _130
REMARK   54  A    between atoms: _139  and  _141
REMARK   55  A    between atoms: _141  and  _142
REMARK   56  A    between atoms: _141  and  _144
REMARK   57  A    between atoms: _146  and  _148
REMARK   58  A    between atoms: _148  and  _149
REMARK   59  A    between atoms: _148  and  _151
REMARK   60  A    between atoms: _151  and  _152
REMARK   61  A    between atoms: _152  and  _153
REMARK   62  A    between atoms: _153  and  _154
REMARK   63  A    between atoms: _154  and  _155
REMARK   64  A    between atoms: _159  and  _161
REMARK   65  A    between atoms: _161  and  _162
REMARK   66  A    between atoms: _161  and  _164
REMARK   67  A    between atoms: _164  and  _165
REMARK   68  A    between atoms: _170  and  _172
REMARK   69  A    between atoms: _172  and  _173
REMARK   70  A    between atoms: _172  and  _175
REMARK   71  A    between atoms: _175  and  _176
REMARK   72  A    between atoms: _176  and  _177
REMARK   73  A    between atoms: _182  and  _184
REMARK   74  A    between atoms: _184  and  _185
REMARK   75  A    between atoms: _184  and  _187
REMARK   76  A    between atoms: _187  and  _188
REMARK   77  A    between atoms: _193  and  _195
REMARK   78  A    between atoms: _195  and  _196
REMARK   79  A    between atoms: _195  and  _198
REMARK   80  A    between atoms: _198  and  _199
REMARK   81  A    between atoms: _202  and  _204
REMARK   82  A    between atoms: _204  and  _205
REMARK   83  A    between atoms: _204  and  _207
REMARK   84  A    between atoms: _207  and  _208
REMARK   85  A    between atoms: _210  and  _212
REMARK   86  A    between atoms: _212  and  _213
REMARK   87  A    between atoms: _212  and  _215
REMARK   88  A    between atoms: _215  and  _216
REMARK   89  A    between atoms: _221  and  _223
REMARK   90  A    between atoms: _223  and  _224
REMARK   91  A    between atoms: _223  and  _226
REMARK   92  A    between atoms: _228  and  _230
REMARK   93  A    between atoms: _230  and  _231
REMARK   94  A    between atoms: _230  and  _233
REMARK   95  A    between atoms: _233  and  _234
REMARK   96  A    between atoms: _239  and  _241
REMARK   97  A    between atoms: _241  and  _242
REMARK   98  A    between atoms: _241  and  _244
REMARK   99  A    between atoms: _244  and  _245
REMARK  100  A    between atoms: _248  and  _250
REMARK  101  A    between atoms: _250  and  _251
REMARK  102  A    between atoms: _250  and  _253
REMARK  103  A    between atoms: _253  and  _254
REMARK  104  A    between atoms: _259  and  _260
REMARK  105  A    between atoms: _262  and  _264
REMARK  106  A    between atoms: _264  and  _265
REMARK  107  A    between atoms: _264  and  _267
REMARK  108  A    between atoms: _267  and  _268
REMARK  109  A    between atoms: _268  and  _269
REMARK  110  A    between atoms: _271  and  _273
REMARK  111  A    between atoms: _273  and  _274
REMARK  112  A    between atoms: _273  and  _276
REMARK  113  A    between atoms: _276  and  _277
REMARK  114  A    between atoms: _280  and  _282
REMARK  115  A    between atoms: _282  and  _283
REMARK  116  A    between atoms: _282  and  _285
REMARK  117  A    between atoms: _288  and  _290
REMARK  118  A    between atoms: _290  and  _291
REMARK  119  A    between atoms: _294  and  _296
REMARK  120  A    between atoms: _296  and  _297
REMARK  121  A    between atoms: _296  and  _299
REMARK  122  A    between atoms: _302  and  _304
REMARK  123  A    between atoms: _304  and  _305
REMARK  124  A    between atoms: _304  and  _307
REMARK  125  A    between atoms: _307  and  _308
REMARK  126  A    between atoms: _313  and  _315
REMARK  127  A    between atoms: _315  and  _316
REMARK  128  A    between atoms: _315  and  _318
REMARK  129  A    between atoms: _318  and  _319
REMARK  130  A    between atoms: _322  and  _324
REMARK  131  A    between atoms: _324  and  _325
REMARK  132  A    between atoms: _324  and  _327
REMARK  133  A    between atoms: _327  and  _328
REMARK  134  A    between atoms: _331  and  _333
REMARK  135  A    between atoms: _333  and  _334
REMARK  136  A    between atoms: _333  and  _336
REMARK  137  A    between atoms: _336  and  _337
REMARK  138  A    between atoms: _337  and  _338
REMARK  139  A    between atoms: _338  and  _339
REMARK  140  A    between atoms: _348  and  _350
REMARK  141  A    between atoms: _350  and  _351
REMARK  142  A    between atoms: _350  and  _353
REMARK  143  A    between atoms: _353  and  _354
REMARK                            x       y       z     vdW  Elec       q    Type
REMARK                         _______ _______ _______ _____ _____    ______ ____
ROOT
ATOM      1  CA  MET A   1      26.550   8.151  -0.618  0.00  0.00    +0.134 C 
ENDROOT
BRANCH   1   2
ATOM      2  N   MET A   1      26.411   6.721  -0.447  0.00  0.00    -0.239 NA
ATOM      3  H   MET A   1      26.073   6.336   0.458  0.00  0.00    +0.142 HD
ENDBRANCH   1   2
BRANCH   1   4
ATOM      4  C   MET A   1      27.028   8.780   0.653  0.00  0.00    +0.224 C 
ATOM      5  O   MET A   1      27.140   8.125   1.690  0.00  0.00    -0.287 OA
ENDBRANCH   1   4
BRANCH   1   6
ATOM      6  CB  MET A   1      25.209   8.782  -0.999  0.00  0.00    +0.037 C 
BRANCH   6   7
ATOM      7  CG  MET A   1      24.531   8.133  -2.182  0.00  0.00    +0.059 C 
BRANCH   7   8
ATOM      8  SD  MET A   1      22.899   8.806  -2.496  0.00  0.00    -0.139 S 
ATOM      9  CE  MET A   1      21.886   7.613  -1.677  0.00  0.00    +0.069 C 
ENDBRANCH   7   8
ENDBRANCH   6   7
ENDBRANCH   1   6
TORSDOF 5
REMARK  Name = ../refined-set-2016/1hi5/1hi5_pocket.pdb
REMARK  143 active torsions:
REMARK  status: ('A' for Active; 'I' for Inactive)
REMARK    1  A    between atoms: _1  and  _5
REMARK    2  A    between atoms: _5  and  _6
REMARK    3  A    between atoms: _5  and  _8
REMARK    4  A    between atoms: _8  and  _9
REMARK    5  A    between atoms: _9  and  _10
REMARK    6  A    between atoms: _12  and  _14
REMARK    7  A    between atoms: _14  and  _15
REMARK    8  A    between atoms: _14  and  _17
REMARK    9  A    between atoms: _17  and  _18
REMARK   10  A    between atoms: _18  and  _19
REMARK   11  A    between atoms: _19  and  _20
REMARK   12  A    between atoms: _20  and  _21
REMARK   13  A    between atoms: _25  and  _27
REMARK   14  A    between atoms: _27  and  _28
REMARK   15  A    between atoms: _27  and  _30
REMARK   16  A    between atoms: _30  and  _31
REMARK   17  A    between atoms: _41  and  _43
REMARK   18  A    between atoms: _43  and  _44
REMARK   19  A    between atoms: _43  and  _46
REMARK   20  A    between atoms: _46  and  _47
REMARK   21  A    between atoms: _57  and  _59
REMARK   22  A    between atoms: _59  and  _60
REMARK   23  A    between atoms: _59  and  _62
REMARK   24  A    between atoms: _62  and  _63
REMARK   25  A    between atoms: _69  and  _71
REMARK   26  A    between atoms: _71  and  _72
REMARK   27  A    between atoms: _71  and  _74
REMARK   28  A    between atoms: _74  and  _75
REMARK   29  A    between atoms: _75  and  _76
REMARK   30  A    between atoms: _81  and  _83
REMARK   31  A    between atoms: _83  and  _84
REMARK   32  A    between atoms: _83  and  _86
REMARK   33  A    between atoms: _86  and  _87
REMARK   34  A    between atoms: _92  and  _94
REMARK   35  A    between atoms: _94  and  _95
REMARK   36  A    between atoms: _94  and  _97
REMARK   37  A    between atoms: _97  and  _98
REMARK   38  A    between atoms: _98  and  _99
REMARK   39  A    between atoms: _101  and  _103
REMARK   40  A    between atoms: _103  and  _104
REMARK   41  A    between atoms: _103  and  _106
REMARK   42  A    between atoms: _106  and  _107
REMARK   43  A    between atoms: _110  and  _112
REMARK   44  A    between atoms: _112  and  _113
REMARK   45  A    between atoms: _112  and  _115
REMARK   46  A    between atoms: _115  and  _116
REMARK   47  A    between atoms: _116  and  _117
REMARK   48  A    between atoms: _122  and  _124
REMARK   49  A    between atoms: _124  and  _125
REMARK   50  A    between atoms: _124  and  _127
REMARK   51  A    between atoms: _127  and  _128
REMARK   52  A    between atoms: _128  and  _129
REMARK   53  A    between atoms: _129  and  _130
REMARK   54  A    between atoms: _139  and  _141
REMARK   55  A    between atoms: _141  and  _142
REMARK   56  A    between atoms: _141  and  _144
REMARK   57  A    between atoms: _146  and  _148
REMARK   58  A    between atoms: _148  and  _149
REMARK   59  A    between atoms: _148  and  _151
REMARK   60  A    between atoms: _151  and  _152
REMARK   61  A    between atoms: _152  and  _153
REMARK   62  A    between atoms: _153  and  _154
REMARK   63  A    between atoms: _154  and  _155
REMARK   64  A    between atoms: _159  and  _161
REMARK   65  A    between atoms: _161  and  _162
REMARK   66  A    between atoms: _161  and  _164
REMARK   67  A    between atoms: _164  and  _165
REMARK   68  A    between atoms: _170  and  _172
REMARK   69  A    between atoms: _172  and  _173
REMARK   70  A    between atoms: _172  and  _175
REMARK   71  A    between atoms: _175  and  _176
REMARK   72  A    between atoms: _176  and  _177
REMARK   73  A    between atoms: _182  and  _184
REMARK   74  A    between atoms: _184  and  _185
REMARK   75  A    between atoms: _184  and  _187
REMARK   76  A    between atoms: _187  and  _188
REMARK   77  A    between atoms: _193  and  _195
REMARK   78  A    between atoms: _195  and  _196
REMARK   79  A    between atoms: _195  and  _198
REMARK   80  A    between atoms: _198  and  _199
REMARK   81  A    between atoms: _202  and  _204
REMARK   82  A    between atoms: _204  and  _205
REMARK   83  A    between atoms: _204  and  _207
REMARK   84  A    between atoms: _207  and  _208
REMARK   85  A    between atoms: _210  and  _212
REMARK   86  A    between atoms: _212  and  _213
REMARK   87  A    between atoms: _212  and  _215
REMARK   88  A    between atoms: _215  and  _216
REMARK   89  A    between atoms: _221  and  _223
REMARK   90  A    between atoms: _223  and  _224
REMARK   91  A    between atoms: _223  and  _226
REMARK   92  A    between atoms: _228  and  _230
REMARK   93  A    between atoms: _230  and  _231
REMARK   94  A    between atoms: _230  and  _233
REMARK   95  A    between atoms: _233  and  _234
REMARK   96  A    between atoms: _239  and  _241
REMARK   97  A    between atoms: _241  and  _242
REMARK   98  A    between atoms: _241  and  _244
REMARK   99  A    between atoms: _244  and  _245
REMARK  100  A    between atoms: _248  and  _250
REMARK  101  A    between atoms: _250  and  _251
REMARK  102  A    between atoms: _250  and  _253
REMARK  103  A    between atoms: _253  and  _254
REMARK  104  A    between atoms: _259  and  _260
REMARK  105  A    between atoms: _262  and  _264
REMARK  106  A    between atoms: _264  and  _265
REMARK  107  A    between atoms: _264  and  _267
REMARK  108  A    between atoms: _267  and  _268
REMARK  109  A    between atoms: _268  and  _269
REMARK  110  A    between atoms: _271  and  _273
REMARK  111  A    between atoms: _273  and  _274
REMARK  112  A    between atoms: _273  and  _276
REMARK  113  A    between atoms: _276  and  _277
REMARK  114  A    between atoms: _280  and  _282
REMARK  115  A    between atoms: _282  and  _283
REMARK  116  A    between atoms: _282  and  _285
REMARK  117  A    between atoms: _288  and  _290
REMARK  118  A    between atoms: _290  and  _291
REMARK  119  A    between atoms: _294  and  _296
REMARK  120  A    between atoms: _296  and  _297
REMARK  121  A    between atoms: _296  and  _299
REMARK  122  A    between atoms: _302  and  _304
REMARK  123  A    between atoms: _304  and  _305
REMARK  124  A    between atoms: _304  and  _307
REMARK  125  A    between atoms: _307  and  _308
REMARK  126  A    between atoms: _313  and  _315
REMARK  127  A    between atoms: _315  and  _316
REMARK  128  A    between atoms: _315  and  _318
REMARK  129  A    between atoms: _318  and  _319
REMARK  130  A    between atoms: _322  and  _324
REMARK  131  A    between atoms: _324  and  _325
REMARK  132  A    between atoms: _324  and  _327
REMARK  133  A    between atoms: _327  and  _328
REMARK  134  A    between atoms: _331  and  _333
REMARK  135  A    between atoms: _333  and  _334
REMARK  136  A    between atoms: _333  and  _336
REMARK  137  A    between atoms: _336  and  _337
REMARK  138  A    between atoms: _337  and  _338
REMARK  139  A    between atoms: _338  and  _339
REMARK  140  A    between atoms: _348  and  _350
REMARK  141  A    between atoms: _350  and  _351
REMARK  142  A    between atoms: _350  and  _353
REMARK  143  A    between atoms: _353  and  _354
REMARK                            x       y       z     vdW  Elec       q    Type
REMARK                         _______ _______ _______ _____ _____    ______ ____
ROOT
ATOM      1  CA  VAL A   2      23.730  15.744   9.385  0.00  0.00    +0.148 C 
ENDROOT
BRANCH   1   3
ATOM      2  C   ILE A   1      24.108  15.612   7.003  0.00  0.00    +0.238 C 
ATOM      3  N   VAL A   2      24.607  15.757   8.222  0.00  0.00    -0.297 N 
ATOM      4  H   VAL A   2      25.632  15.881   8.349  0.00  0.00    +0.150 HD
ATOM      5  O   ILE A   1      22.918  15.441   6.799  0.00  0.00    -0.274 OA
BRANCH   2   6
ATOM      6  CA  ILE A   1      25.091  15.633   5.839  0.00  0.00    +0.145 C 
BRANCH   6   7
ATOM      7  N   ILE A   1      24.896  14.370   5.164  0.00  0.00    -0.238 NA
ATOM      8  H   ILE A   1      23.956  14.152   4.775  0.00  0.00    +0.142 HD
ENDBRANCH   6   7
BRANCH   6   9
ATOM      9  CB  ILE A   1      24.765  16.811   4.903  0.00  0.00    +0.025 C 
ATOM     10  CG2 ILE A   1      24.743  18.126   5.709  0.00  0.00    +0.002 C 
BRANCH   9  11
ATOM     11  CG1 ILE A   1      25.791  16.851   3.762  0.00  0.00    +0.002 C 
ATOM     12  CD1 ILE A   1      25.445  17.818   2.648  0.00  0.00    +0.000 C 
ENDBRANCH   9  11
ENDBRANCH   6   9
ENDBRANCH   2   6
ENDBRANCH   1   3
BRANCH   1  13
ATOM     13  C   VAL A   2      23.801  17.042  10.169  0.00  0.00    +0.241 C 
ATOM     14  N   ALA A   3      22.660  17.433  10.725  0.00  0.00    -0.298 N 
ATOM     15  H   ALA A   3      21.798  16.878  10.550  0.00  0.00    +0.150 HD
ATOM     16  O   VAL A   2      24.857  17.684  10.245  0.00  0.00    -0.273 OA
BRANCH  14  17
ATOM     17  CA  ALA A   3      22.577  18.613  11.571  0.00  0.00    +0.137 C 
ATOM     18  CB  ALA A   3      21.186  19.236  11.476  0.00  0.00    +0.030 C 
BRANCH  17  19
ATOM     19  C   ALA A   3      22.808  18.048  12.976  0.00  0.00    +0.227 C 
ATOM     20  O   ALA A   3      22.261  16.994  13.334  0.00  0.00    -0.286 OA
ENDBRANCH  17  19
ENDBRANCH  14  17
ENDBRANCH   1  13
BRANCH   1  21
ATOM     21  CB  VAL A   2      24.083  14.603  10.367  0.00  0.00    +0.027 C 
ATOM     22  CG2 VAL A   2      25.618  14.464  10.493  0.00  0.00    +0.002 C 
ATOM     23  CG1 VAL A   2      23.447  13.304   9.901  0.00  0.00    +0.002 C 
ENDBRANCH   1  21
TORSDOF 9
REMARK  Name = ../refined-set-2016/1hi5/1hi5_pocket.pdb
REMARK  143 active torsions:
REMARK  status: ('A' for Active; 'I' for Inactive)
REMARK    1  A    between atoms: _1  and  _5
REMARK    2  A    between atoms: _5  and  _6
REMARK    3  A    between atoms: _5  and  _8
REMARK    4  A    between atoms: _8  and  _9
REMARK    5  A    between atoms: _9  and  _10
REMARK    6  A    between atoms: _12  and  _14
REMARK    7  A    between atoms: _14  and  _15
REMARK    8  A    between atoms: _14  and  _17
REMARK    9  A    between atoms: _17  and  _18
REMARK   10  A    between atoms: _18  and  _19
REMARK   11  A    between atoms: _19  and  _20
REMARK   12  A    between atoms: _20  and  _21
REMARK   13  A    between atoms: _25  and  _27
REMARK   14  A    between atoms: _27  and  _28
REMARK   15  A    between atoms: _27  and  _30
REMARK   16  A    between atoms: _30  and  _31
REMARK   17  A    between atoms: _41  and  _43
REMARK   18  A    between atoms: _43  and  _44
REMARK   19  A    between atoms: _43  and  _46
REMARK   20  A    between atoms: _46  and  _47
REMARK   21  A    between atoms: _57  and  _59
REMARK   22  A    between atoms: _59  and  _60
REMARK   23  A    between atoms: _59  and  _62
REMARK   24  A    between atoms: _62  and  _63
REMARK   25  A    between atoms: _69  and  _71
REMARK   26  A    between atoms: _71  and  _72
REMARK   27  A    between atoms: _71  and  _74
REMARK   28  A    between atoms: _74  and  _75
REMARK   29  A    between atoms: _75  and  _76
REMARK   30  A    between atoms: _81  and  _83
REMARK   31  A    between atoms: _83  and  _84
REMARK   32  A    between atoms: _83  and  _86
REMARK   33  A    between atoms: _86  and  _87
REMARK   34  A    between atoms: _92  and  _94
REMARK   35  A    between atoms: _94  and  _95
REMARK   36  A    between atoms: _94  and  _97
REMARK   37  A    between atoms: _97  and  _98
REMARK   38  A    between atoms: _98  and  _99
REMARK   39  A    between atoms: _101  and  _103
REMARK   40  A    between atoms: _103  and  _104
REMARK   41  A    between atoms: _103  and  _106
REMARK   42  A    between atoms: _106  and  _107
REMARK   43  A    between atoms: _110  and  _112
REMARK   44  A    between atoms: _112  and  _113
REMARK   45  A    between atoms: _112  and  _115
REMARK   46  A    between atoms: _115  and  _116
REMARK   47  A    between atoms: _116  and  _117
REMARK   48  A    between atoms: _122  and  _124
REMARK   49  A    between atoms: _124  and  _125
REMARK   50  A    between atoms: _124  and  _127
REMARK   51  A    between atoms: _127  and  _128
REMARK   52  A    between atoms: _128  and  _129
REMARK   53  A    between atoms: _129  and  _130
REMARK   54  A    between atoms: _139  and  _141
REMARK   55  A    between atoms: _141  and  _142
REMARK   56  A    between atoms: _141  and  _144
REMARK   57  A    between atoms: _146  and  _148
REMARK   58  A    between atoms: _148  and  _149
REMARK   59  A    between atoms: _148  and  _151
REMARK   60  A    between atoms: _151  and  _152
REMARK   61  A    between atoms: _152  and  _153
REMARK   62  A    between atoms: _153  and  _154
REMARK   63  A    between atoms: _154  and  _155
REMARK   64  A    between atoms: _159  and  _161
REMARK   65  A    between atoms: _161  and  _162
REMARK   66  A    between atoms: _161  and  _164
REMARK   67  A    between atoms: _164  and  _165
REMARK   68  A    between atoms: _170  and  _172
REMARK   69  A    between atoms: _172  and  _173
REMARK   70  A    between atoms: _172  and  _175
REMARK   71  A    between atoms: _175  and  _176
REMARK   72  A    between atoms: _176  and  _177
REMARK   73  A    between atoms: _182  and  _184
REMARK   74  A    between atoms: _184  and  _185
REMARK   75  A    between atoms: _184  and  _187
REMARK   76  A    between atoms: _187  and  _188
REMARK   77  A    between atoms: _193  and  _195
REMARK   78  A    between atoms: _195  and  _196
REMARK   79  A    between atoms: _195  and  _198
REMARK   80  A    between atoms: _198  and  _199
REMARK   81  A    between atoms: _202  and  _204
REMARK   82  A    between atoms: _204  and  _205
REMARK   83  A    between atoms: _204  and  _207
REMARK   84  A    between atoms: _207  and  _208
REMARK   85  A    between atoms: _210  and  _212
REMARK   86  A    between atoms: _212  and  _213
REMARK   87  A    between atoms: _212  and  _215
REMARK   88  A    between atoms: _215  and  _216
REMARK   89  A    between atoms: _221  and  _223
REMARK   90  A    between atoms: _223  and  _224
REMARK   91  A    between atoms: _223  and  _226
REMARK   92  A    between atoms: _228  and  _230
REMARK   93  A    between atoms: _230  and  _231
REMARK   94  A    between atoms: _230  and  _233
REMARK   95  A    between atoms: _233  and  _234
REMARK   96  A    between atoms: _239  and  _241
REMARK   97  A    between atoms: _241  and  _242
REMARK   98  A    between atoms: _241  and  _244
REMARK   99  A    between atoms: _244  and  _245
REMARK  100  A    between atoms: _248  and  _250
REMARK  101  A    between atoms: _250  and  _251
REMARK  102  A    between atoms: _250  and  _253
REMARK  103  A    between atoms: _253  and  _254
REMARK  104  A    between atoms: _259  and  _260
REMARK  105  A    between atoms: _262  and  _264
REMARK  106  A    between atoms: _264  and  _265
REMARK  107  A    between atoms: _264  and  _267
REMARK  108  A    between atoms: _267  and  _268
REMARK  109  A    between atoms: _268  and  _269
REMARK  110  A    between atoms: _271  and  _273
REMARK  111  A    between atoms: _273  and  _274
REMARK  112  A    between atoms: _273  and  _276
REMARK  113  A    between atoms: _276  and  _277
REMARK  114  A    between atoms: _280  and  _282
REMARK  115  A    between atoms: _282  and  _283
REMARK  116  A    between atoms: _282  and  _285
REMARK  117  A    between atoms: _288  and  _290
REMARK  118  A    between atoms: _290  and  _291
REMARK  119  A    between atoms: _294  and  _296
REMARK  120  A    between atoms: _296  and  _297
REMARK  121  A    between atoms: _296  and  _299
REMARK  122  A    between atoms: _302  and  _304
REMARK  123  A    between atoms: _304  and  _305
REMARK  124  A    between atoms: _304  and  _307
REMARK  125  A    between atoms: _307  and  _308
REMARK  126  A    between atoms: _313  and  _315
REMARK  127  A    between atoms: _315  and  _316
REMARK  128  A    between atoms: _315  and  _318
REMARK  129  A    between atoms: _318  and  _319
REMARK  130  A    between atoms: _322  and  _324
REMARK  131  A    between atoms: _324  and  _325
REMARK  132  A    between atoms: _324  and  _327
REMARK  133  A    between atoms: _327  and  _328
REMARK  134  A    between atoms: _331  and  _333
REMARK  135  A    between atoms: _333  and  _334
REMARK  136  A    between atoms: _333  and  _336
REMARK  137  A    between atoms: _336  and  _337
REMARK  138  A    between atoms: _337  and  _338
REMARK  139  A    between atoms: _338  and  _339
REMARK  140  A    between atoms: _348  and  _350
REMARK  141  A    between atoms: _350  and  _351
REMARK  142  A    between atoms: _350  and  _353
REMARK  143  A    between atoms: _353  and  _354
REMARK                            x       y       z     vdW  Elec       q    Type
REMARK                         _______ _______ _______ _____ _____    ______ ____
ROOT
ATOM      1  CA  ASP A   4      19.707  17.038   6.283  0.00  0.00    +0.160 C 
ENDROOT
BRANCH   1   2
ATOM      2  C   ASP A   4      19.745  16.645   4.810  0.00  0.00    +0.241 C 
ATOM      3  N   ARG A   5      20.670  15.764   4.451  0.00  0.00    -0.297 N 
ATOM      4  H   ARG A   5      21.295  15.337   5.165  0.00  0.00    +0.150 HD
ATOM      5  O   ASP A   4      18.922  17.124   4.005  0.00  0.00    -0.273 OA
BRANCH   3   6
ATOM      6  CA  ARG A   5      20.800  15.403   3.055  0.00  0.00    +0.149 C 
BRANCH   6   7
ATOM      7  C   ARG A   5      21.760  14.250   2.765  0.00  0.00    +0.241 C 
ATOM      8  O   ARG A   5      22.696  13.998   3.521  0.00  0.00    -0.273 OA
ATOM      9  N   ILE A   6      21.502  13.541   1.671  0.00  0.00    -0.298 N 
ATOM     10  H   ILE A   6      20.646  13.747   1.117  0.00  0.00    +0.150 HD
BRANCH   9  11
ATOM     11  CA  ILE A   6      22.397  12.482   1.237  0.00  0.00    +0.137 C 
BRANCH  11  12
ATOM     12  C   ILE A   6      22.875  12.985  -0.118  0.00  0.00    +0.227 C 
ATOM     13  O   ILE A   6      22.079  13.434  -0.948  0.00  0.00    -0.286 OA
ENDBRANCH  11  12
BRANCH  11  14
ATOM     14  CB  ILE A   6      21.711  11.072   1.113  0.00  0.00    +0.026 C 
ATOM     15  CG2 ILE A   6      21.589  10.439   2.503  0.00  0.00    +0.002 C 
BRANCH  14  16
ATOM     16  CG1 ILE A   6      20.323  11.166   0.484  0.00  0.00    +0.002 C 
ATOM     17  CD1 ILE A   6      19.572   9.835   0.470  0.00  0.00    +0.000 C 
ENDBRANCH  14  16
ENDBRANCH  11  14
ENDBRANCH   9  11
ENDBRANCH   6   7
BRANCH   6  18
ATOM     18  CB  ARG A   5      21.283  16.642   2.295  0.00  0.00    +0.033 C 
BRANCH  18  19
ATOM     19  CG  ARG A   5      20.924  16.677   0.835  0.00  0.00    +0.045 C 
BRANCH  19  20
ATOM     20  CD  ARG A   5      19.973  17.826   0.563  0.00  0.00    +0.174 C 
BRANCH  20  21
ATOM     21  NE  ARG A   5      19.660  17.920  -0.856  0.00  0.00    -0.265 N 
ATOM     22  CZ  ARG A   5      18.646  18.615  -1.350  0.00  0.00    +0.342 C 
ATOM     23  NH2 ARG A   5      17.833  19.288  -0.539  0.00  0.00    -0.292 N 
ATOM     24 HH21 ARG A   5      17.992  19.270   0.489  0.00  0.00    +0.255 HD
ATOM     25 HH22 ARG A   5      17.039  19.832  -0.933  0.00  0.00    +0.255 HD
ATOM     26  NH1 ARG A   5      18.443  18.630  -2.659  0.00  0.00    -0.292 N 
ATOM     27 HH11 ARG A   5      17.650  19.173  -3.056  0.00  0.00    +0.255 HD
ATOM     28 HH12 ARG A   5      19.077  18.099  -3.290  0.00  0.00    +0.255 HD
ATOM     29  HE  ARG A   5      20.271  17.409  -1.524  0.00  0.00    +0.259 HD
ENDBRANCH  20  21
ENDBRANCH  19  20
ENDBRANCH  18  19
ENDBRANCH   6  18
ENDBRANCH   3   6
ENDBRANCH   1   2
BRANCH   1  31
ATOM     30  C   LEU A   3      19.073  15.057   7.458  0.00  0.00    +0.241 C 
ATOM     31  N   ASP A   4      20.004  15.965   7.216  0.00  0.00    -0.297 N 
ATOM     32  H   ASP A   4      20.931  15.912   7.685  0.00  0.00    +0.150 HD
ATOM     33  O   LEU A   3      17.973  15.080   6.909  0.00  0.00    -0.273 OA
BRANCH  30  34
ATOM     34  CA  LEU A   3      19.402  13.986   8.466  0.00  0.00    +0.149 C 
BRANCH  34  37
ATOM     35  C   HIS A   2      19.229  15.202  10.549  0.00  0.00    +0.241 C 
ATOM     36  O   HIS A   2      20.431  15.488  10.526  0.00  0.00    -0.273 OA
ATOM     37  N   LEU A   3      18.647  14.452   9.616  0.00  0.00    -0.297 N 
ATOM     38  H   LEU A   3      17.643  14.197   9.711  0.00  0.00    +0.150 HD
BRANCH  35  39
ATOM     39  CA  HIS A   2      18.333  15.713  11.672  0.00  0.00    +0.155 C 
BRANCH  39  42
ATOM     40  C   VAL A   1      18.414  15.679  14.117  0.00  0.00    +0.238 C 
ATOM     41  O   VAL A   1      17.191  15.718  14.215  0.00  0.00    -0.274 OA
ATOM     42  N   HIS A   2      19.049  15.665  12.943  0.00  0.00    -0.297 N 
ATOM     43  H   HIS A   2      20.088  15.618  12.934  0.00  0.00    +0.150 HD
BRANCH  40  44
ATOM     44  CA  VAL A   1      19.277  15.635  15.372  0.00  0.00    +0.145 C 
BRANCH  44  45
ATOM     45  CB  VAL A   1      19.040  16.954  16.155  0.00  0.00    +0.025 C 
ATOM     46  CG2 VAL A   1      19.776  16.906  17.505  0.00  0.00    +0.002 C 
ATOM     47  CG1 VAL A   1      19.493  18.148  15.325  0.00  0.00    +0.002 C 
ENDBRANCH  44  45
BRANCH  44  48
ATOM     48  N   VAL A   1      20.701  15.408  15.096  0.00  0.00    -0.238 NA
ATOM     49  H   VAL A   1      21.189  16.013  14.405  0.00  0.00    +0.142 HD
ENDBRANCH  44  48
ENDBRANCH  40  44
ENDBRANCH  39  42
BRANCH  39  50
ATOM     50  CB  HIS A   2      17.937  17.167  11.319  0.00  0.00    +0.076 C 
BRANCH  50  51
ATOM     51  CG  HIS A   2      16.789  17.713  12.119  0.00  0.00    +0.082 A 
ATOM     52  CD2 HIS A   2      16.709  18.783  12.949  0.00  0.00    +0.115 A 
ATOM     53  NE2 HIS A   2      15.420  18.836  13.424  0.00  0.00    -0.221 NA
ATOM     54  CE1 HIS A   2      14.731  17.835  12.905  0.00  0.00    +0.199 A 
ATOM     55  ND1 HIS A   2      15.534  17.142  12.115  0.00  0.00    -0.227 NA
ENDBRANCH  50  51
ENDBRANCH  39  50
ENDBRANCH  35  39
ENDBRANCH  34  37
BRANCH  34  56
ATOM     56  CB  LEU A   3      18.889  12.639   7.960  0.00  0.00    +0.029 C 
BRANCH  56  57
ATOM     57  CG  LEU A   3      19.574  12.180   6.659  0.00  0.00    +0.002 C 
ATOM     58  CD2 LEU A   3      21.107  12.216   6.859  0.00  0.00    +0.000 C 
ATOM     59  CD1 LEU A   3      19.091  10.762   6.254  0.00  0.00    +0.000 C 
ENDBRANCH  56  57
ENDBRANCH  34  56
ENDBRANCH  30  34
ENDBRANCH   1  31
BRANCH   1  60
ATOM     60  CB  ASP A   4      20.648  18.227   6.510  0.00  0.00    +0.143 C 
BRANCH  60  61
ATOM     61  CG  ASP A   4      20.133  19.493   5.856  0.00  0.00    +0.367 C 
ATOM     62  OD2 ASP A   4      19.220  20.122   6.431  0.00  0.00    -0.246 OA
ATOM     63  OD1 ASP A   4      20.627  19.855   4.765  0.00  0.00    -0.246 OA
ENDBRANCH  60  61
ENDBRANCH   1  60
TORSDOF 25
REMARK  Name = ../refined-set-2016/1hi5/1hi5_pocket.pdb
REMARK  143 active torsions:
REMARK  status: ('A' for Active; 'I' for Inactive)
REMARK    1  A    between atoms: _1  and  _5
REMARK    2  A    between atoms: _5  and  _6
REMARK    3  A    between atoms: _5  and  _8
REMARK    4  A    between atoms: _8  and  _9
REMARK    5  A    between atoms: _9  and  _10
REMARK    6  A    between atoms: _12  and  _14
REMARK    7  A    between atoms: _14  and  _15
REMARK    8  A    between atoms: _14  and  _17
REMARK    9  A    between atoms: _17  and  _18
REMARK   10  A    between atoms: _18  and  _19
REMARK   11  A    between atoms: _19  and  _20
REMARK   12  A    between atoms: _20  and  _21
REMARK   13  A    between atoms: _25  and  _27
REMARK   14  A    between atoms: _27  and  _28
REMARK   15  A    between atoms: _27  and  _30
REMARK   16  A    between atoms: _30  and  _31
REMARK   17  A    between atoms: _41  and  _43
REMARK   18  A    between atoms: _43  and  _44
REMARK   19  A    between atoms: _43  and  _46
REMARK   20  A    between atoms: _46  and  _47
REMARK   21  A    between atoms: _57  and  _59
REMARK   22  A    between atoms: _59  and  _60
REMARK   23  A    between atoms: _59  and  _62
REMARK   24  A    between atoms: _62  and  _63
REMARK   25  A    between atoms: _69  and  _71
REMARK   26  A    between atoms: _71  and  _72
REMARK   27  A    between atoms: _71  and  _74
REMARK   28  A    between atoms: _74  and  _75
REMARK   29  A    between atoms: _75  and  _76
REMARK   30  A    between atoms: _81  and  _83
REMARK   31  A    between atoms: _83  and  _84
REMARK   32  A    between atoms: _83  and  _86
REMARK   33  A    between atoms: _86  and  _87
REMARK   34  A    between atoms: _92  and  _94
REMARK   35  A    between atoms: _94  and  _95
REMARK   36  A    between atoms: _94  and  _97
REMARK   37  A    between atoms: _97  and  _98
REMARK   38  A    between atoms: _98  and  _99
REMARK   39  A    between atoms: _101  and  _103
REMARK   40  A    between atoms: _103  and  _104
REMARK   41  A    between atoms: _103  and  _106
REMARK   42  A    between atoms: _106  and  _107
REMARK   43  A    between atoms: _110  and  _112
REMARK   44  A    between atoms: _112  and  _113
REMARK   45  A    between atoms: _112  and  _115
REMARK   46  A    between atoms: _115  and  _116
REMARK   47  A    between atoms: _116  and  _117
REMARK   48  A    between atoms: _122  and  _124
REMARK   49  A    between atoms: _124  and  _125
REMARK   50  A    between atoms: _124  and  _127
REMARK   51  A    between atoms: _127  and  _128
REMARK   52  A    between atoms: _128  and  _129
REMARK   53  A    between atoms: _129  and  _130
REMARK   54  A    between atoms: _139  and  _141
REMARK   55  A    between atoms: _141  and  _142
REMARK   56  A    between atoms: _141  and  _144
REMARK   57  A    between atoms: _146  and  _148
REMARK   58  A    between atoms: _148  and  _149
REMARK   59  A    between atoms: _148  and  _151
REMARK   60  A    between atoms: _151  and  _152
REMARK   61  A    between atoms: _152  and  _153
REMARK   62  A    between atoms: _153  and  _154
REMARK   63  A    between atoms: _154  and  _155
REMARK   64  A    between atoms: _159  and  _161
REMARK   65  A    between atoms: _161  and  _162
REMARK   66  A    between atoms: _161  and  _164
REMARK   67  A    between atoms: _164  and  _165
REMARK   68  A    between atoms: _170  and  _172
REMARK   69  A    between atoms: _172  and  _173
REMARK   70  A    between atoms: _172  and  _175
REMARK   71  A    between atoms: _175  and  _176
REMARK   72  A    between atoms: _176  and  _177
REMARK   73  A    between atoms: _182  and  _184
REMARK   74  A    between atoms: _184  and  _185
REMARK   75  A    between atoms: _184  and  _187
REMARK   76  A    between atoms: _187  and  _188
REMARK   77  A    between atoms: _193  and  _195
REMARK   78  A    between atoms: _195  and  _196
REMARK   79  A    between atoms: _195  and  _198
REMARK   80  A    between atoms: _198  and  _199
REMARK   81  A    between atoms: _202  and  _204
REMARK   82  A    between atoms: _204  and  _205
REMARK   83  A    between atoms: _204  and  _207
REMARK   84  A    between atoms: _207  and  _208
REMARK   85  A    between atoms: _210  and  _212
REMARK   86  A    between atoms: _212  and  _213
REMARK   87  A    between atoms: _212  and  _215
REMARK   88  A    between atoms: _215  and  _216
REMARK   89  A    between atoms: _221  and  _223
REMARK   90  A    between atoms: _223  and  _224
REMARK   91  A    between atoms: _223  and  _226
REMARK   92  A    between atoms: _228  and  _230
REMARK   93  A    between atoms: _230  and  _231
REMARK   94  A    between atoms: _230  and  _233
REMARK   95  A    between atoms: _233  and  _234
REMARK   96  A    between atoms: _239  and  _241
REMARK   97  A    between atoms: _241  and  _242
REMARK   98  A    between atoms: _241  and  _244
REMARK   99  A    between atoms: _244  and  _245
REMARK  100  A    between atoms: _248  and  _250
REMARK  101  A    between atoms: _250  and  _251
REMARK  102  A    between atoms: _250  and  _253
REMARK  103  A    between atoms: _253  and  _254
REMARK  104  A    between atoms: _259  and  _260
REMARK  105  A    between atoms: _262  and  _264
REMARK  106  A    between atoms: _264  and  _265
REMARK  107  A    between atoms: _264  and  _267
REMARK  108  A    between atoms: _267  and  _268
REMARK  109  A    between atoms: _268  and  _269
REMARK  110  A    between atoms: _271  and  _273
REMARK  111  A    between atoms: _273  and  _274
REMARK  112  A    between atoms: _273  and  _276
REMARK  113  A    between atoms: _276  and  _277
REMARK  114  A    between atoms: _280  and  _282
REMARK  115  A    between atoms: _282  and  _283
REMARK  116  A    between atoms: _282  and  _285
REMARK  117  A    between atoms: _288  and  _290
REMARK  118  A    between atoms: _290  and  _291
REMARK  119  A    between atoms: _294  and  _296
REMARK  120  A    between atoms: _296  and  _297
REMARK  121  A    between atoms: _296  and  _299
REMARK  122  A    between atoms: _302  and  _304
REMARK  123  A    between atoms: _304  and  _305
REMARK  124  A    between atoms: _304  and  _307
REMARK  125  A    between atoms: _307  and  _308
REMARK  126  A    between atoms: _313  and  _315
REMARK  127  A    between atoms: _315  and  _316
REMARK  128  A    between atoms: _315  and  _318
REMARK  129  A    between atoms: _318  and  _319
REMARK  130  A    between atoms: _322  and  _324
REMARK  131  A    between atoms: _324  and  _325
REMARK  132  A    between atoms: _324  and  _327
REMARK  133  A    between atoms: _327  and  _328
REMARK  134  A    between atoms: _331  and  _333
REMARK  135  A    between atoms: _333  and  _334
REMARK  136  A    between atoms: _333  and  _336
REMARK  137  A    between atoms: _336  and  _337
REMARK  138  A    between atoms: _337  and  _338
REMARK  139  A    between atoms: _338  and  _339
REMARK  140  A    between atoms: _348  and  _350
REMARK  141  A    between atoms: _350  and  _351
REMARK  142  A    between atoms: _350  and  _353
REMARK  143  A    between atoms: _353  and  _354
REMARK                            x       y       z     vdW  Elec       q    Type
REMARK                         _______ _______ _______ _____ _____    ______ ____
ROOT
ATOM      1  O   HOH     1      10.270  13.987  12.533  0.00  0.00    +0.000 OA
ENDROOT
TORSDOF 0
REMARK  Name = ../refined-set-2016/1hi5/1hi5_pocket.pdb
REMARK  143 active torsions:
REMARK  status: ('A' for Active; 'I' for Inactive)
REMARK    1  A    between atoms: _1  and  _5
REMARK    2  A    between atoms: _5  and  _6
REMARK    3  A    between atoms: _5  and  _8
REMARK    4  A    between atoms: _8  and  _9
REMARK    5  A    between atoms: _9  and  _10
REMARK    6  A    between atoms: _12  and  _14
REMARK    7  A    between atoms: _14  and  _15
REMARK    8  A    between atoms: _14  and  _17
REMARK    9  A    between atoms: _17  and  _18
REMARK   10  A    between atoms: _18  and  _19
REMARK   11  A    between atoms: _19  and  _20
REMARK   12  A    between atoms: _20  and  _21
REMARK   13  A    between atoms: _25  and  _27
REMARK   14  A    between atoms: _27  and  _28
REMARK   15  A    between atoms: _27  and  _30
REMARK   16  A    between atoms: _30  and  _31
REMARK   17  A    between atoms: _41  and  _43
REMARK   18  A    between atoms: _43  and  _44
REMARK   19  A    between atoms: _43  and  _46
REMARK   20  A    between atoms: _46  and  _47
REMARK   21  A    between atoms: _57  and  _59
REMARK   22  A    between atoms: _59  and  _60
REMARK   23  A    between atoms: _59  and  _62
REMARK   24  A    between atoms: _62  and  _63
REMARK   25  A    between atoms: _69  and  _71
REMARK   26  A    between atoms: _71  and  _72
REMARK   27  A    between atoms: _71  and  _74
REMARK   28  A    between atoms: _74  and  _75
REMARK   29  A    between atoms: _75  and  _76
REMARK   30  A    between atoms: _81  and  _83
REMARK   31  A    between atoms: _83  and  _84
REMARK   32  A    between atoms: _83  and  _86
REMARK   33  A    between atoms: _86  and  _87
REMARK   34  A    between atoms: _92  and  _94
REMARK   35  A    between atoms: _94  and  _95
REMARK   36  A    between atoms: _94  and  _97
REMARK   37  A    between atoms: _97  and  _98
REMARK   38  A    between atoms: _98  and  _99
REMARK   39  A    between atoms: _101  and  _103
REMARK   40  A    between atoms: _103  and  _104
REMARK   41  A    between atoms: _103  and  _106
REMARK   42  A    between atoms: _106  and  _107
REMARK   43  A    between atoms: _110  and  _112
REMARK   44  A    between atoms: _112  and  _113
REMARK   45  A    between atoms: _112  and  _115
REMARK   46  A    between atoms: _115  and  _116
REMARK   47  A    between atoms: _116  and  _117
REMARK   48  A    between atoms: _122  and  _124
REMARK   49  A    between atoms: _124  and  _125
REMARK   50  A    between atoms: _124  and  _127
REMARK   51  A    between atoms: _127  and  _128
REMARK   52  A    between atoms: _128  and  _129
REMARK   53  A    between atoms: _129  and  _130
REMARK   54  A    between atoms: _139  and  _141
REMARK   55  A    between atoms: _141  and  _142
REMARK   56  A    between atoms: _141  and  _144
REMARK   57  A    between atoms: _146  and  _148
REMARK   58  A    between atoms: _148  and  _149
REMARK   59  A    between atoms: _148  and  _151
REMARK   60  A    between atoms: _151  and  _152
REMARK   61  A    between atoms: _152  and  _153
REMARK   62  A    between atoms: _153  and  _154
REMARK   63  A    between atoms: _154  and  _155
REMARK   64  A    between atoms: _159  and  _161
REMARK   65  A    between atoms: _161  and  _162
REMARK   66  A    between atoms: _161  and  _164
REMARK   67  A    between atoms: _164  and  _165
REMARK   68  A    between atoms: _170  and  _172
REMARK   69  A    between atoms: _172  and  _173
REMARK   70  A    between atoms: _172  and  _175
REMARK   71  A    between atoms: _175  and  _176
REMARK   72  A    between atoms: _176  and  _177
REMARK   73  A    between atoms: _182  and  _184
REMARK   74  A    between atoms: _184  and  _185
REMARK   75  A    between atoms: _184  and  _187
REMARK   76  A    between atoms: _187  and  _188
REMARK   77  A    between atoms: _193  and  _195
REMARK   78  A    between atoms: _195  and  _196
REMARK   79  A    between atoms: _195  and  _198
REMARK   80  A    between atoms: _198  and  _199
REMARK   81  A    between atoms: _202  and  _204
REMARK   82  A    between atoms: _204  and  _205
REMARK   83  A    between atoms: _204  and  _207
REMARK   84  A    between atoms: _207  and  _208
REMARK   85  A    between atoms: _210  and  _212
REMARK   86  A    between atoms: _212  and  _213
REMARK   87  A    between atoms: _212  and  _215
REMARK   88  A    between atoms: _215  and  _216
REMARK   89  A    between atoms: _221  and  _223
REMARK   90  A    between atoms: _223  and  _224
REMARK   91  A    between atoms: _223  and  _226
REMARK   92  A    between atoms: _228  and  _230
REMARK   93  A    between atoms: _230  and  _231
REMARK   94  A    between atoms: _230  and  _233
REMARK   95  A    between atoms: _233  and  _234
REMARK   96  A    between atoms: _239  and  _241
REMARK   97  A    between atoms: _241  and  _242
REMARK   98  A    between atoms: _241  and  _244
REMARK   99  A    between atoms: _244  and  _245
REMARK  100  A    between atoms: _248  and  _250
REMARK  101  A    between atoms: _250  and  _251
REMARK  102  A    between atoms: _250  and  _253
REMARK  103  A    between atoms: _253  and  _254
REMARK  104  A    between atoms: _259  and  _260
REMARK  105  A    between atoms: _262  and  _264
REMARK  106  A    between atoms: _264  and  _265
REMARK  107  A    between atoms: _264  and  _267
REMARK  108  A    between atoms: _267  and  _268
REMARK  109  A    between atoms: _268  and  _269
REMARK  110  A    between atoms: _271  and  _273
REMARK  111  A    between atoms: _273  and  _274
REMARK  112  A    between atoms: _273  and  _276
REMARK  113  A    between atoms: _276  and  _277
REMARK  114  A    between atoms: _280  and  _282
REMARK  115  A    between atoms: _282  and  _283
REMARK  116  A    between atoms: _282  and  _285
REMARK  117  A    between atoms: _288  and  _290
REMARK  118  A    between atoms: _290  and  _291
REMARK  119  A    between atoms: _294  and  _296
REMARK  120  A    between atoms: _296  and  _297
REMARK  121  A    between atoms: _296  and  _299
REMARK  122  A    between atoms: _302  and  _304
REMARK  123  A    between atoms: _304  and  _305
REMARK  124  A    between atoms: _304  and  _307
REMARK  125  A    between atoms: _307  and  _308
REMARK  126  A    between atoms: _313  and  _315
REMARK  127  A    between atoms: _315  and  _316
REMARK  128  A    between atoms: _315  and  _318
REMARK  129  A    between atoms: _318  and  _319
REMARK  130  A    between atoms: _322  and  _324
REMARK  131  A    between atoms: _324  and  _325
REMARK  132  A    between atoms: _324  and  _327
REMARK  133  A    between atoms: _327  and  _328
REMARK  134  A    between atoms: _331  and  _333
REMARK  135  A    between atoms: _333  and  _334
REMARK  136  A    between atoms: _333  and  _336
REMARK  137  A    between atoms: _336  and  _337
REMARK  138  A    between atoms: _337  and  _338
REMARK  139  A    between atoms: _338  and  _339
REMARK  140  A    between atoms: _348  and  _350
REMARK  141  A    between atoms: _350  and  _351
REMARK  142  A    between atoms: _350  and  _353
REMARK  143  A    between atoms: _353  and  _354
REMARK                            x       y       z     vdW  Elec       q    Type
REMARK                         _______ _______ _______ _____ _____    ______ ____
ROOT
ATOM      1  O   HOH     1      11.220  13.638  -4.186  0.00  0.00    +0.000 OA
ENDROOT
TORSDOF 0
REMARK  Name = ../refined-set-2016/1hi5/1hi5_pocket.pdb
REMARK  143 active torsions:
REMARK  status: ('A' for Active; 'I' for Inactive)
REMARK    1  A    between atoms: _1  and  _5
REMARK    2  A    between atoms: _5  and  _6
REMARK    3  A    between atoms: _5  and  _8
REMARK    4  A    between atoms: _8  and  _9
REMARK    5  A    between atoms: _9  and  _10
REMARK    6  A    between atoms: _12  and  _14
REMARK    7  A    between atoms: _14  and  _15
REMARK    8  A    between atoms: _14  and  _17
REMARK    9  A    between atoms: _17  and  _18
REMARK   10  A    between atoms: _18  and  _19
REMARK   11  A    between atoms: _19  and  _20
REMARK   12  A    between atoms: _20  and  _21
REMARK   13  A    between atoms: _25  and  _27
REMARK   14  A    between atoms: _27  and  _28
REMARK   15  A    between atoms: _27  and  _30
REMARK   16  A    between atoms: _30  and  _31
REMARK   17  A    between atoms: _41  and  _43
REMARK   18  A    between atoms: _43  and  _44
REMARK   19  A    between atoms: _43  and  _46
REMARK   20  A    between atoms: _46  and  _47
REMARK   21  A    between atoms: _57  and  _59
REMARK   22  A    between atoms: _59  and  _60
REMARK   23  A    between atoms: _59  and  _62
REMARK   24  A    between atoms: _62  and  _63
REMARK   25  A    between atoms: _69  and  _71
REMARK   26  A    between atoms: _71  and  _72
REMARK   27  A    between atoms: _71  and  _74
REMARK   28  A    between atoms: _74  and  _75
REMARK   29  A    between atoms: _75  and  _76
REMARK   30  A    between atoms: _81  and  _83
REMARK   31  A    between atoms: _83  and  _84
REMARK   32  A    between atoms: _83  and  _86
REMARK   33  A    between atoms: _86  and  _87
REMARK   34  A    between atoms: _92  and  _94
REMARK   35  A    between atoms: _94  and  _95
REMARK   36  A    between atoms: _94  and  _97
REMARK   37  A    between atoms: _97  and  _98
REMARK   38  A    between atoms: _98  and  _99
REMARK   39  A    between atoms: _101  and  _103
REMARK   40  A    between atoms: _103  and  _104
REMARK   41  A    between atoms: _103  and  _106
REMARK   42  A    between atoms: _106  and  _107
REMARK   43  A    between atoms: _110  and  _112
REMARK   44  A    between atoms: _112  and  _113
REMARK   45  A    between atoms: _112  and  _115
REMARK   46  A    between atoms: _115  and  _116
REMARK   47  A    between atoms: _116  and  _117
REMARK   48  A    between atoms: _122  and  _124
REMARK   49  A    between atoms: _124  and  _125
REMARK   50  A    between atoms: _124  and  _127
REMARK   51  A    between atoms: _127  and  _128
REMARK   52  A    between atoms: _128  and  _129
REMARK   53  A    between atoms: _129  and  _130
REMARK   54  A    between atoms: _139  and  _141
REMARK   55  A    between atoms: _141  and  _142
REMARK   56  A    between atoms: _141  and  _144
REMARK   57  A    between atoms: _146  and  _148
REMARK   58  A    between atoms: _148  and  _149
REMARK   59  A    between atoms: _148  and  _151
REMARK   60  A    between atoms: _151  and  _152
REMARK   61  A    between atoms: _152  and  _153
REMARK   62  A    between atoms: _153  and  _154
REMARK   63  A    between atoms: _154  and  _155
REMARK   64  A    between atoms: _159  and  _161
REMARK   65  A    between atoms: _161  and  _162
REMARK   66  A    between atoms: _161  and  _164
REMARK   67  A    between atoms: _164  and  _165
REMARK   68  A    between atoms: _170  and  _172
REMARK   69  A    between atoms: _172  and  _173
REMARK   70  A    between atoms: _172  and  _175
REMARK   71  A    between atoms: _175  and  _176
REMARK   72  A    between atoms: _176  and  _177
REMARK   73  A    between atoms: _182  and  _184
REMARK   74  A    between atoms: _184  and  _185
REMARK   75  A    between atoms: _184  and  _187
REMARK   76  A    between atoms: _187  and  _188
REMARK   77  A    between atoms: _193  and  _195
REMARK   78  A    between atoms: _195  and  _196
REMARK   79  A    between atoms: _195  and  _198
REMARK   80  A    between atoms: _198  and  _199
REMARK   81  A    between atoms: _202  and  _204
REMARK   82  A    between atoms: _204  and  _205
REMARK   83  A    between atoms: _204  and  _207
REMARK   84  A    between atoms: _207  and  _208
REMARK   85  A    between atoms: _210  and  _212
REMARK   86  A    between atoms: _212  and  _213
REMARK   87  A    between atoms: _212  and  _215
REMARK   88  A    between atoms: _215  and  _216
REMARK   89  A    between atoms: _221  and  _223
REMARK   90  A    between atoms: _223  and  _224
REMARK   91  A    between atoms: _223  and  _226
REMARK   92  A    between atoms: _228  and  _230
REMARK   93  A    between atoms: _230  and  _231
REMARK   94  A    between atoms: _230  and  _233
REMARK   95  A    between atoms: _233  and  _234
REMARK   96  A    between atoms: _239  and  _241
REMARK   97  A    between atoms: _241  and  _242
REMARK   98  A    between atoms: _241  and  _244
REMARK   99  A    between atoms: _244  and  _245
REMARK  100  A    between atoms: _248  and  _250
REMARK  101  A    between atoms: _250  and  _251
REMARK  102  A    between atoms: _250  and  _253
REMARK  103  A    between atoms: _253  and  _254
REMARK  104  A    between atoms: _259  and  _260
REMARK  105  A    between atoms: _262  and  _264
REMARK  106  A    between atoms: _264  and  _265
REMARK  107  A    between atoms: _264  and  _267
REMARK  108  A    between atoms: _267  and  _268
REMARK  109  A    between atoms: _268  and  _269
REMARK  110  A    between atoms: _271  and  _273
REMARK  111  A    between atoms: _273  and  _274
REMARK  112  A    between atoms: _273  and  _276
REMARK  113  A    between atoms: _276  and  _277
REMARK  114  A    between atoms: _280  and  _282
REMARK  115  A    between atoms: _282  and  _283
REMARK  116  A    between atoms: _282  and  _285
REMARK  117  A    between atoms: _288  and  _290
REMARK  118  A    between atoms: _290  and  _291
REMARK  119  A    between atoms: _294  and  _296
REMARK  120  A    between atoms: _296  and  _297
REMARK  121  A    between atoms: _296  and  _299
REMARK  122  A    between atoms: _302  and  _304
REMARK  123  A    between atoms: _304  and  _305
REMARK  124  A    between atoms: _304  and  _307
REMARK  125  A    between atoms: _307  and  _308
REMARK  126  A    between atoms: _313  and  _315
REMARK  127  A    between atoms: _315  and  _316
REMARK  128  A    between atoms: _315  and  _318
REMARK  129  A    between atoms: _318  and  _319
REMARK  130  A    between atoms: _322  and  _324
REMARK  131  A    between atoms: _324  and  _325
REMARK  132  A    between atoms: _324  and  _327
REMARK  133  A    between atoms: _327  and  _328
REMARK  134  A    between atoms: _331  and  _333
REMARK  135  A    between atoms: _333  and  _334
REMARK  136  A    between atoms: _333  and  _336
REMARK  137  A    between atoms: _336  and  _337
REMARK  138  A    between atoms: _337  and  _338
REMARK  139  A    between atoms: _338  and  _339
REMARK  140  A    between atoms: _348  and  _350
REMARK  141  A    between atoms: _350  and  _351
REMARK  142  A    between atoms: _350  and  _353
REMARK  143  A    between atoms: _353  and  _354
REMARK                            x       y       z     vdW  Elec       q    Type
REMARK                         _______ _______ _______ _____ _____    ______ ____
ROOT
ATOM      1  O   HOH     1      15.943  12.434  12.689  0.00  0.00    +0.000 OA
ENDROOT
TORSDOF 0
REMARK  Name = ../refined-set-2016/1hi5/1hi5_pocket.pdb
REMARK  143 active torsions:
REMARK  status: ('A' for Active; 'I' for Inactive)
REMARK    1  A    between atoms: _1  and  _5
REMARK    2  A    between atoms: _5  and  _6
REMARK    3  A    between atoms: _5  and  _8
REMARK    4  A    between atoms: _8  and  _9
REMARK    5  A    between atoms: _9  and  _10
REMARK    6  A    between atoms: _12  and  _14
REMARK    7  A    between atoms: _14  and  _15
REMARK    8  A    between atoms: _14  and  _17
REMARK    9  A    between atoms: _17  and  _18
REMARK   10  A    between atoms: _18  and  _19
REMARK   11  A    between atoms: _19  and  _20
REMARK   12  A    between atoms: _20  and  _21
REMARK   13  A    between atoms: _25  and  _27
REMARK   14  A    between atoms: _27  and  _28
REMARK   15  A    between atoms: _27  and  _30
REMARK   16  A    between atoms: _30  and  _31
REMARK   17  A    between atoms: _41  and  _43
REMARK   18  A    between atoms: _43  and  _44
REMARK   19  A    between atoms: _43  and  _46
REMARK   20  A    between atoms: _46  and  _47
REMARK   21  A    between atoms: _57  and  _59
REMARK   22  A    between atoms: _59  and  _60
REMARK   23  A    between atoms: _59  and  _62
REMARK   24  A    between atoms: _62  and  _63
REMARK   25  A    between atoms: _69  and  _71
REMARK   26  A    between atoms: _71  and  _72
REMARK   27  A    between atoms: _71  and  _74
REMARK   28  A    between atoms: _74  and  _75
REMARK   29  A    between atoms: _75  and  _76
REMARK   30  A    between atoms: _81  and  _83
REMARK   31  A    between atoms: _83  and  _84
REMARK   32  A    between atoms: _83  and  _86
REMARK   33  A    between atoms: _86  and  _87
REMARK   34  A    between atoms: _92  and  _94
REMARK   35  A    between atoms: _94  and  _95
REMARK   36  A    between atoms: _94  and  _97
REMARK   37  A    between atoms: _97  and  _98
REMARK   38  A    between atoms: _98  and  _99
REMARK   39  A    between atoms: _101  and  _103
REMARK   40  A    between atoms: _103  and  _104
REMARK   41  A    between atoms: _103  and  _106
REMARK   42  A    between atoms: _106  and  _107
REMARK   43  A    between atoms: _110  and  _112
REMARK   44  A    between atoms: _112  and  _113
REMARK   45  A    between atoms: _112  and  _115
REMARK   46  A    between atoms: _115  and  _116
REMARK   47  A    between atoms: _116  and  _117
REMARK   48  A    between atoms: _122  and  _124
REMARK   49  A    between atoms: _124  and  _125
REMARK   50  A    between atoms: _124  and  _127
REMARK   51  A    between atoms: _127  and  _128
REMARK   52  A    between atoms: _128  and  _129
REMARK   53  A    between atoms: _129  and  _130
REMARK   54  A    between atoms: _139  and  _141
REMARK   55  A    between atoms: _141  and  _142
REMARK   56  A    between atoms: _141  and  _144
REMARK   57  A    between atoms: _146  and  _148
REMARK   58  A    between atoms: _148  and  _149
REMARK   59  A    between atoms: _148  and  _151
REMARK   60  A    between atoms: _151  and  _152
REMARK   61  A    between atoms: _152  and  _153
REMARK   62  A    between atoms: _153  and  _154
REMARK   63  A    between atoms: _154  and  _155
REMARK   64  A    between atoms: _159  and  _161
REMARK   65  A    between atoms: _161  and  _162
REMARK   66  A    between atoms: _161  and  _164
REMARK   67  A    between atoms: _164  and  _165
REMARK   68  A    between atoms: _170  and  _172
REMARK   69  A    between atoms: _172  and  _173
REMARK   70  A    between atoms: _172  and  _175
REMARK   71  A    between atoms: _175  and  _176
REMARK   72  A    between atoms: _176  and  _177
REMARK   73  A    between atoms: _182  and  _184
REMARK   74  A    between atoms: _184  and  _185
REMARK   75  A    between atoms: _184  and  _187
REMARK   76  A    between atoms: _187  and  _188
REMARK   77  A    between atoms: _193  and  _195
REMARK   78  A    between atoms: _195  and  _196
REMARK   79  A    between atoms: _195  and  _198
REMARK   80  A    between atoms: _198  and  _199
REMARK   81  A    between atoms: _202  and  _204
REMARK   82  A    between atoms: _204  and  _205
REMARK   83  A    between atoms: _204  and  _207
REMARK   84  A    between atoms: _207  and  _208
REMARK   85  A    between atoms: _210  and  _212
REMARK   86  A    between atoms: _212  and  _213
REMARK   87  A    between atoms: _212  and  _215
REMARK   88  A    between atoms: _215  and  _216
REMARK   89  A    between atoms: _221  and  _223
REMARK   90  A    between atoms: _223  and  _224
REMARK   91  A    between atoms: _223  and  _226
REMARK   92  A    between atoms: _228  and  _230
REMARK   93  A    between atoms: _230  and  _231
REMARK   94  A    between atoms: _230  and  _233
REMARK   95  A    between atoms: _233  and  _234
REMARK   96  A    between atoms: _239  and  _241
REMARK   97  A    between atoms: _241  and  _242
REMARK   98  A    between atoms: _241  and  _244
REMARK   99  A    between atoms: _244  and  _245
REMARK  100  A    between atoms: _248  and  _250
REMARK  101  A    between atoms: _250  and  _251
REMARK  102  A    between atoms: _250  and  _253
REMARK  103  A    between atoms: _253  and  _254
REMARK  104  A    between atoms: _259  and  _260
REMARK  105  A    between atoms: _262  and  _264
REMARK  106  A    between atoms: _264  and  _265
REMARK  107  A    between atoms: _264  and  _267
REMARK  108  A    between atoms: _267  and  _268
REMARK  109  A    between atoms: _268  and  _269
REMARK  110  A    between atoms: _271  and  _273
REMARK  111  A    between atoms: _273  and  _274
REMARK  112  A    between atoms: _273  and  _276
REMARK  113  A    between atoms: _276  and  _277
REMARK  114  A    between atoms: _280  and  _282
REMARK  115  A    between atoms: _282  and  _283
REMARK  116  A    between atoms: _282  and  _285
REMARK  117  A    between atoms: _288  and  _290
REMARK  118  A    between atoms: _290  and  _291
REMARK  119  A    between atoms: _294  and  _296
REMARK  120  A    between atoms: _296  and  _297
REMARK  121  A    between atoms: _296  and  _299
REMARK  122  A    between atoms: _302  and  _304
REMARK  123  A    between atoms: _304  and  _305
REMARK  124  A    between atoms: _304  and  _307
REMARK  125  A    between atoms: _307  and  _308
REMARK  126  A    between atoms: _313  and  _315
REMARK  127  A    between atoms: _315  and  _316
REMARK  128  A    between atoms: _315  and  _318
REMARK  129  A    between atoms: _318  and  _319
REMARK  130  A    between atoms: _322  and  _324
REMARK  131  A    between atoms: _324  and  _325
REMARK  132  A    between atoms: _324  and  _327
REMARK  133  A    between atoms: _327  and  _328
REMARK  134  A    between atoms: _331  and  _333
REMARK  135  A    between atoms: _333  and  _334
REMARK  136  A    between atoms: _333  and  _336
REMARK  137  A    between atoms: _336  and  _337
REMARK  138  A    between atoms: _337  and  _338
REMARK  139  A    between atoms: _338  and  _339
REMARK  140  A    between atoms: _348  and  _350
REMARK  141  A    between atoms: _350  and  _351
REMARK  142  A    between atoms: _350  and  _353
REMARK  143  A    between atoms: _353  and  _354
REMARK                            x       y       z     vdW  Elec       q    Type
REMARK                         _______ _______ _______ _____ _____    ______ ____
ROOT
ATOM      1  O   HOH     1       6.291  12.439   4.858  0.00  0.00    +0.000 OA
ENDROOT
TORSDOF 0
REMARK  Name = ../refined-set-2016/1hi5/1hi5_pocket.pdb
REMARK  143 active torsions:
REMARK  status: ('A' for Active; 'I' for Inactive)
REMARK    1  A    between atoms: _1  and  _5
REMARK    2  A    between atoms: _5  and  _6
REMARK    3  A    between atoms: _5  and  _8
REMARK    4  A    between atoms: _8  and  _9
REMARK    5  A    between atoms: _9  and  _10
REMARK    6  A    between atoms: _12  and  _14
REMARK    7  A    between atoms: _14  and  _15
REMARK    8  A    between atoms: _14  and  _17
REMARK    9  A    between atoms: _17  and  _18
REMARK   10  A    between atoms: _18  and  _19
REMARK   11  A    between atoms: _19  and  _20
REMARK   12  A    between atoms: _20  and  _21
REMARK   13  A    between atoms: _25  and  _27
REMARK   14  A    between atoms: _27  and  _28
REMARK   15  A    between atoms: _27  and  _30
REMARK   16  A    between atoms: _30  and  _31
REMARK   17  A    between atoms: _41  and  _43
REMARK   18  A    between atoms: _43  and  _44
REMARK   19  A    between atoms: _43  and  _46
REMARK   20  A    between atoms: _46  and  _47
REMARK   21  A    between atoms: _57  and  _59
REMARK   22  A    between atoms: _59  and  _60
REMARK   23  A    between atoms: _59  and  _62
REMARK   24  A    between atoms: _62  and  _63
REMARK   25  A    between atoms: _69  and  _71
REMARK   26  A    between atoms: _71  and  _72
REMARK   27  A    between atoms: _71  and  _74
REMARK   28  A    between atoms: _74  and  _75
REMARK   29  A    between atoms: _75  and  _76
REMARK   30  A    between atoms: _81  and  _83
REMARK   31  A    between atoms: _83  and  _84
REMARK   32  A    between atoms: _83  and  _86
REMARK   33  A    between atoms: _86  and  _87
REMARK   34  A    between atoms: _92  and  _94
REMARK   35  A    between atoms: _94  and  _95
REMARK   36  A    between atoms: _94  and  _97
REMARK   37  A    between atoms: _97  and  _98
REMARK   38  A    between atoms: _98  and  _99
REMARK   39  A    between atoms: _101  and  _103
REMARK   40  A    between atoms: _103  and  _104
REMARK   41  A    between atoms: _103  and  _106
REMARK   42  A    between atoms: _106  and  _107
REMARK   43  A    between atoms: _110  and  _112
REMARK   44  A    between atoms: _112  and  _113
REMARK   45  A    between atoms: _112  and  _115
REMARK   46  A    between atoms: _115  and  _116
REMARK   47  A    between atoms: _116  and  _117
REMARK   48  A    between atoms: _122  and  _124
REMARK   49  A    between atoms: _124  and  _125
REMARK   50  A    between atoms: _124  and  _127
REMARK   51  A    between atoms: _127  and  _128
REMARK   52  A    between atoms: _128  and  _129
REMARK   53  A    between atoms: _129  and  _130
REMARK   54  A    between atoms: _139  and  _141
REMARK   55  A    between atoms: _141  and  _142
REMARK   56  A    between atoms: _141  and  _144
REMARK   57  A    between atoms: _146  and  _148
REMARK   58  A    between atoms: _148  and  _149
REMARK   59  A    between atoms: _148  and  _151
REMARK   60  A    between atoms: _151  and  _152
REMARK   61  A    between atoms: _152  and  _153
REMARK   62  A    between atoms: _153  and  _154
REMARK   63  A    between atoms: _154  and  _155
REMARK   64  A    between atoms: _159  and  _161
REMARK   65  A    between atoms: _161  and  _162
REMARK   66  A    between atoms: _161  and  _164
REMARK   67  A    between atoms: _164  and  _165
REMARK   68  A    between atoms: _170  and  _172
REMARK   69  A    between atoms: _172  and  _173
REMARK   70  A    between atoms: _172  and  _175
REMARK   71  A    between atoms: _175  and  _176
REMARK   72  A    between atoms: _176  and  _177
REMARK   73  A    between atoms: _182  and  _184
REMARK   74  A    between atoms: _184  and  _185
REMARK   75  A    between atoms: _184  and  _187
REMARK   76  A    between atoms: _187  and  _188
REMARK   77  A    between atoms: _193  and  _195
REMARK   78  A    between atoms: _195  and  _196
REMARK   79  A    between atoms: _195  and  _198
REMARK   80  A    between atoms: _198  and  _199
REMARK   81  A    between atoms: _202  and  _204
REMARK   82  A    between atoms: _204  and  _205
REMARK   83  A    between atoms: _204  and  _207
REMARK   84  A    between atoms: _207  and  _208
REMARK   85  A    between atoms: _210  and  _212
REMARK   86  A    between atoms: _212  and  _213
REMARK   87  A    between atoms: _212  and  _215
REMARK   88  A    between atoms: _215  and  _216
REMARK   89  A    between atoms: _221  and  _223
REMARK   90  A    between atoms: _223  and  _224
REMARK   91  A    between atoms: _223  and  _226
REMARK   92  A    between atoms: _228  and  _230
REMARK   93  A    between atoms: _230  and  _231
REMARK   94  A    between atoms: _230  and  _233
REMARK   95  A    between atoms: _233  and  _234
REMARK   96  A    between atoms: _239  and  _241
REMARK   97  A    between atoms: _241  and  _242
REMARK   98  A    between atoms: _241  and  _244
REMARK   99  A    between atoms: _244  and  _245
REMARK  100  A    between atoms: _248  and  _250
REMARK  101  A    between atoms: _250  and  _251
REMARK  102  A    between atoms: _250  and  _253
REMARK  103  A    between atoms: _253  and  _254
REMARK  104  A    between atoms: _259  and  _260
REMARK  105  A    between atoms: _262  and  _264
REMARK  106  A    between atoms: _264  and  _265
REMARK  107  A    between atoms: _264  and  _267
REMARK  108  A    between atoms: _267  and  _268
REMARK  109  A    between atoms: _268  and  _269
REMARK  110  A    between atoms: _271  and  _273
REMARK  111  A    between atoms: _273  and  _274
REMARK  112  A    between atoms: _273  and  _276
REMARK  113  A    between atoms: _276  and  _277
REMARK  114  A    between atoms: _280  and  _282
REMARK  115  A    between atoms: _282  and  _283
REMARK  116  A    between atoms: _282  and  _285
REMARK  117  A    between atoms: _288  and  _290
REMARK  118  A    between atoms: _290  and  _291
REMARK  119  A    between atoms: _294  and  _296
REMARK  120  A    between atoms: _296  and  _297
REMARK  121  A    between atoms: _296  and  _299
REMARK  122  A    between atoms: _302  and  _304
REMARK  123  A    between atoms: _304  and  _305
REMARK  124  A    between atoms: _304  and  _307
REMARK  125  A    between atoms: _307  and  _308
REMARK  126  A    between atoms: _313  and  _315
REMARK  127  A    between atoms: _315  and  _316
REMARK  128  A    between atoms: _315  and  _318
REMARK  129  A    between atoms: _318  and  _319
REMARK  130  A    between atoms: _322  and  _324
REMARK  131  A    between atoms: _324  and  _325
REMARK  132  A    between atoms: _324  and  _327
REMARK  133  A    between atoms: _327  and  _328
REMARK  134  A    between atoms: _331  and  _333
REMARK  135  A    between atoms: _333  and  _334
REMARK  136  A    between atoms: _333  and  _336
REMARK  137  A    between atoms: _336  and  _337
REMARK  138  A    between atoms: _337  and  _338
REMARK  139  A    between atoms: _338  and  _339
REMARK  140  A    between atoms: _348  and  _350
REMARK  141  A    between atoms: _350  and  _351
REMARK  142  A    between atoms: _350  and  _353
REMARK  143  A    between atoms: _353  and  _354
REMARK                            x       y       z     vdW  Elec       q    Type
REMARK                         _______ _______ _______ _____ _____    ______ ____
ROOT
ATOM      1  O   HOH     1       8.174  12.603  -2.885  0.00  0.00    +0.000 OA
ENDROOT
TORSDOF 0
REMARK  Name = ../refined-set-2016/1hi5/1hi5_pocket.pdb
REMARK  143 active torsions:
REMARK  status: ('A' for Active; 'I' for Inactive)
REMARK    1  A    between atoms: _1  and  _5
REMARK    2  A    between atoms: _5  and  _6
REMARK    3  A    between atoms: _5  and  _8
REMARK    4  A    between atoms: _8  and  _9
REMARK    5  A    between atoms: _9  and  _10
REMARK    6  A    between atoms: _12  and  _14
REMARK    7  A    between atoms: _14  and  _15
REMARK    8  A    between atoms: _14  and  _17
REMARK    9  A    between atoms: _17  and  _18
REMARK   10  A    between atoms: _18  and  _19
REMARK   11  A    between atoms: _19  and  _20
REMARK   12  A    between atoms: _20  and  _21
REMARK   13  A    between atoms: _25  and  _27
REMARK   14  A    between atoms: _27  and  _28
REMARK   15  A    between atoms: _27  and  _30
REMARK   16  A    between atoms: _30  and  _31
REMARK   17  A    between atoms: _41  and  _43
REMARK   18  A    between atoms: _43  and  _44
REMARK   19  A    between atoms: _43  and  _46
REMARK   20  A    between atoms: _46  and  _47
REMARK   21  A    between atoms: _57  and  _59
REMARK   22  A    between atoms: _59  and  _60
REMARK   23  A    between atoms: _59  and  _62
REMARK   24  A    between atoms: _62  and  _63
REMARK   25  A    between atoms: _69  and  _71
REMARK   26  A    between atoms: _71  and  _72
REMARK   27  A    between atoms: _71  and  _74
REMARK   28  A    between atoms: _74  and  _75
REMARK   29  A    between atoms: _75  and  _76
REMARK   30  A    between atoms: _81  and  _83
REMARK   31  A    between atoms: _83  and  _84
REMARK   32  A    between atoms: _83  and  _86
REMARK   33  A    between atoms: _86  and  _87
REMARK   34  A    between atoms: _92  and  _94
REMARK   35  A    between atoms: _94  and  _95
REMARK   36  A    between atoms: _94  and  _97
REMARK   37  A    between atoms: _97  and  _98
REMARK   38  A    between atoms: _98  and  _99
REMARK   39  A    between atoms: _101  and  _103
REMARK   40  A    between atoms: _103  and  _104
REMARK   41  A    between atoms: _103  and  _106
REMARK   42  A    between atoms: _106  and  _107
REMARK   43  A    between atoms: _110  and  _112
REMARK   44  A    between atoms: _112  and  _113
REMARK   45  A    between atoms: _112  and  _115
REMARK   46  A    between atoms: _115  and  _116
REMARK   47  A    between atoms: _116  and  _117
REMARK   48  A    between atoms: _122  and  _124
REMARK   49  A    between atoms: _124  and  _125
REMARK   50  A    between atoms: _124  and  _127
REMARK   51  A    between atoms: _127  and  _128
REMARK   52  A    between atoms: _128  and  _129
REMARK   53  A    between atoms: _129  and  _130
REMARK   54  A    between atoms: _139  and  _141
REMARK   55  A    between atoms: _141  and  _142
REMARK   56  A    between atoms: _141  and  _144
REMARK   57  A    between atoms: _146  and  _148
REMARK   58  A    between atoms: _148  and  _149
REMARK   59  A    between atoms: _148  and  _151
REMARK   60  A    between atoms: _151  and  _152
REMARK   61  A    between atoms: _152  and  _153
REMARK   62  A    between atoms: _153  and  _154
REMARK   63  A    between atoms: _154  and  _155
REMARK   64  A    between atoms: _159  and  _161
REMARK   65  A    between atoms: _161  and  _162
REMARK   66  A    between atoms: _161  and  _164
REMARK   67  A    between atoms: _164  and  _165
REMARK   68  A    between atoms: _170  and  _172
REMARK   69  A    between atoms: _172  and  _173
REMARK   70  A    between atoms: _172  and  _175
REMARK   71  A    between atoms: _175  and  _176
REMARK   72  A    between atoms: _176  and  _177
REMARK   73  A    between atoms: _182  and  _184
REMARK   74  A    between atoms: _184  and  _185
REMARK   75  A    between atoms: _184  and  _187
REMARK   76  A    between atoms: _187  and  _188
REMARK   77  A    between atoms: _193  and  _195
REMARK   78  A    between atoms: _195  and  _196
REMARK   79  A    between atoms: _195  and  _198
REMARK   80  A    between atoms: _198  and  _199
REMARK   81  A    between atoms: _202  and  _204
REMARK   82  A    between atoms: _204  and  _205
REMARK   83  A    between atoms: _204  and  _207
REMARK   84  A    between atoms: _207  and  _208
REMARK   85  A    between atoms: _210  and  _212
REMARK   86  A    between atoms: _212  and  _213
REMARK   87  A    between atoms: _212  and  _215
REMARK   88  A    between atoms: _215  and  _216
REMARK   89  A    between atoms: _221  and  _223
REMARK   90  A    between atoms: _223  and  _224
REMARK   91  A    between atoms: _223  and  _226
REMARK   92  A    between atoms: _228  and  _230
REMARK   93  A    between atoms: _230  and  _231
REMARK   94  A    between atoms: _230  and  _233
REMARK   95  A    between atoms: _233  and  _234
REMARK   96  A    between atoms: _239  and  _241
REMARK   97  A    between atoms: _241  and  _242
REMARK   98  A    between atoms: _241  and  _244
REMARK   99  A    between atoms: _244  and  _245
REMARK  100  A    between atoms: _248  and  _250
REMARK  101  A    between atoms: _250  and  _251
REMARK  102  A    between atoms: _250  and  _253
REMARK  103  A    between atoms: _253  and  _254
REMARK  104  A    between atoms: _259  and  _260
REMARK  105  A    between atoms: _262  and  _264
REMARK  106  A    between atoms: _264  and  _265
REMARK  107  A    between atoms: _264  and  _267
REMARK  108  A    between atoms: _267  and  _268
REMARK  109  A    between atoms: _268  and  _269
REMARK  110  A    between atoms: _271  and  _273
REMARK  111  A    between atoms: _273  and  _274
REMARK  112  A    between atoms: _273  and  _276
REMARK  113  A    between atoms: _276  and  _277
REMARK  114  A    between atoms: _280  and  _282
REMARK  115  A    between atoms: _282  and  _283
REMARK  116  A    between atoms: _282  and  _285
REMARK  117  A    between atoms: _288  and  _290
REMARK  118  A    between atoms: _290  and  _291
REMARK  119  A    between atoms: _294  and  _296
REMARK  120  A    between atoms: _296  and  _297
REMARK  121  A    between atoms: _296  and  _299
REMARK  122  A    between atoms: _302  and  _304
REMARK  123  A    between atoms: _304  and  _305
REMARK  124  A    between atoms: _304  and  _307
REMARK  125  A    between atoms: _307  and  _308
REMARK  126  A    between atoms: _313  and  _315
REMARK  127  A    between atoms: _315  and  _316
REMARK  128  A    between atoms: _315  and  _318
REMARK  129  A    between atoms: _318  and  _319
REMARK  130  A    between atoms: _322  and  _324
REMARK  131  A    between atoms: _324  and  _325
REMARK  132  A    between atoms: _324  and  _327
REMARK  133  A    between atoms: _327  and  _328
REMARK  134  A    between atoms: _331  and  _333
REMARK  135  A    between atoms: _333  and  _334
REMARK  136  A    between atoms: _333  and  _336
REMARK  137  A    between atoms: _336  and  _337
REMARK  138  A    between atoms: _337  and  _338
REMARK  139  A    between atoms: _338  and  _339
REMARK  140  A    between atoms: _348  and  _350
REMARK  141  A    between atoms: _350  and  _351
REMARK  142  A    between atoms: _350  and  _353
REMARK  143  A    between atoms: _353  and  _354
REMARK                            x       y       z     vdW  Elec       q    Type
REMARK                         _______ _______ _______ _____ _____    ______ ____
ROOT
ATOM      1  O   HOH     1       7.880   8.531  -2.475  0.00  0.00    +0.000 OA
ENDROOT
TORSDOF 0
REMARK  Name = ../refined-set-2016/1hi5/1hi5_pocket.pdb
REMARK  143 active torsions:
REMARK  status: ('A' for Active; 'I' for Inactive)
REMARK    1  A    between atoms: _1  and  _5
REMARK    2  A    between atoms: _5  and  _6
REMARK    3  A    between atoms: _5  and  _8
REMARK    4  A    between atoms: _8  and  _9
REMARK    5  A    between atoms: _9  and  _10
REMARK    6  A    between atoms: _12  and  _14
REMARK    7  A    between atoms: _14  and  _15
REMARK    8  A    between atoms: _14  and  _17
REMARK    9  A    between atoms: _17  and  _18
REMARK   10  A    between atoms: _18  and  _19
REMARK   11  A    between atoms: _19  and  _20
REMARK   12  A    between atoms: _20  and  _21
REMARK   13  A    between atoms: _25  and  _27
REMARK   14  A    between atoms: _27  and  _28
REMARK   15  A    between atoms: _27  and  _30
REMARK   16  A    between atoms: _30  and  _31
REMARK   17  A    between atoms: _41  and  _43
REMARK   18  A    between atoms: _43  and  _44
REMARK   19  A    between atoms: _43  and  _46
REMARK   20  A    between atoms: _46  and  _47
REMARK   21  A    between atoms: _57  and  _59
REMARK   22  A    between atoms: _59  and  _60
REMARK   23  A    between atoms: _59  and  _62
REMARK   24  A    between atoms: _62  and  _63
REMARK   25  A    between atoms: _69  and  _71
REMARK   26  A    between atoms: _71  and  _72
REMARK   27  A    between atoms: _71  and  _74
REMARK   28  A    between atoms: _74  and  _75
REMARK   29  A    between atoms: _75  and  _76
REMARK   30  A    between atoms: _81  and  _83
REMARK   31  A    between atoms: _83  and  _84
REMARK   32  A    between atoms: _83  and  _86
REMARK   33  A    between atoms: _86  and  _87
REMARK   34  A    between atoms: _92  and  _94
REMARK   35  A    between atoms: _94  and  _95
REMARK   36  A    between atoms: _94  and  _97
REMARK   37  A    between atoms: _97  and  _98
REMARK   38  A    between atoms: _98  and  _99
REMARK   39  A    between atoms: _101  and  _103
REMARK   40  A    between atoms: _103  and  _104
REMARK   41  A    between atoms: _103  and  _106
REMARK   42  A    between atoms: _106  and  _107
REMARK   43  A    between atoms: _110  and  _112
REMARK   44  A    between atoms: _112  and  _113
REMARK   45  A    between atoms: _112  and  _115
REMARK   46  A    between atoms: _115  and  _116
REMARK   47  A    between atoms: _116  and  _117
REMARK   48  A    between atoms: _122  and  _124
REMARK   49  A    between atoms: _124  and  _125
REMARK   50  A    between atoms: _124  and  _127
REMARK   51  A    between atoms: _127  and  _128
REMARK   52  A    between atoms: _128  and  _129
REMARK   53  A    between atoms: _129  and  _130
REMARK   54  A    between atoms: _139  and  _141
REMARK   55  A    between atoms: _141  and  _142
REMARK   56  A    between atoms: _141  and  _144
REMARK   57  A    between atoms: _146  and  _148
REMARK   58  A    between atoms: _148  and  _149
REMARK   59  A    between atoms: _148  and  _151
REMARK   60  A    between atoms: _151  and  _152
REMARK   61  A    between atoms: _152  and  _153
REMARK   62  A    between atoms: _153  and  _154
REMARK   63  A    between atoms: _154  and  _155
REMARK   64  A    between atoms: _159  and  _161
REMARK   65  A    between atoms: _161  and  _162
REMARK   66  A    between atoms: _161  and  _164
REMARK   67  A    between atoms: _164  and  _165
REMARK   68  A    between atoms: _170  and  _172
REMARK   69  A    between atoms: _172  and  _173
REMARK   70  A    between atoms: _172  and  _175
REMARK   71  A    between atoms: _175  and  _176
REMARK   72  A    between atoms: _176  and  _177
REMARK   73  A    between atoms: _182  and  _184
REMARK   74  A    between atoms: _184  and  _185
REMARK   75  A    between atoms: _184  and  _187
REMARK   76  A    between atoms: _187  and  _188
REMARK   77  A    between atoms: _193  and  _195
REMARK   78  A    between atoms: _195  and  _196
REMARK   79  A    between atoms: _195  and  _198
REMARK   80  A    between atoms: _198  and  _199
REMARK   81  A    between atoms: _202  and  _204
REMARK   82  A    between atoms: _204  and  _205
REMARK   83  A    between atoms: _204  and  _207
REMARK   84  A    between atoms: _207  and  _208
REMARK   85  A    between atoms: _210  and  _212
REMARK   86  A    between atoms: _212  and  _213
REMARK   87  A    between atoms: _212  and  _215
REMARK   88  A    between atoms: _215  and  _216
REMARK   89  A    between atoms: _221  and  _223
REMARK   90  A    between atoms: _223  and  _224
REMARK   91  A    between atoms: _223  and  _226
REMARK   92  A    between atoms: _228  and  _230
REMARK   93  A    between atoms: _230  and  _231
REMARK   94  A    between atoms: _230  and  _233
REMARK   95  A    between atoms: _233  and  _234
REMARK   96  A    between atoms: _239  and  _241
REMARK   97  A    between atoms: _241  and  _242
REMARK   98  A    between atoms: _241  and  _244
REMARK   99  A    between atoms: _244  and  _245
REMARK  100  A    between atoms: _248  and  _250
REMARK  101  A    between atoms: _250  and  _251
REMARK  102  A    between atoms: _250  and  _253
REMARK  103  A    between atoms: _253  and  _254
REMARK  104  A    between atoms: _259  and  _260
REMARK  105  A    between atoms: _262  and  _264
REMARK  106  A    between atoms: _264  and  _265
REMARK  107  A    between atoms: _264  and  _267
REMARK  108  A    between atoms: _267  and  _268
REMARK  109  A    between atoms: _268  and  _269
REMARK  110  A    between atoms: _271  and  _273
REMARK  111  A    between atoms: _273  and  _274
REMARK  112  A    between atoms: _273  and  _276
REMARK  113  A    between atoms: _276  and  _277
REMARK  114  A    between atoms: _280  and  _282
REMARK  115  A    between atoms: _282  and  _283
REMARK  116  A    between atoms: _282  and  _285
REMARK  117  A    between atoms: _288  and  _290
REMARK  118  A    between atoms: _290  and  _291
REMARK  119  A    between atoms: _294  and  _296
REMARK  120  A    between atoms: _296  and  _297
REMARK  121  A    between atoms: _296  and  _299
REMARK  122  A    between atoms: _302  and  _304
REMARK  123  A    between atoms: _304  and  _305
REMARK  124  A    between atoms: _304  and  _307
REMARK  125  A    between atoms: _307  and  _308
REMARK  126  A    between atoms: _313  and  _315
REMARK  127  A    between atoms: _315  and  _316
REMARK  128  A    between atoms: _315  and  _318
REMARK  129  A    between atoms: _318  and  _319
REMARK  130  A    between atoms: _322  and  _324
REMARK  131  A    between atoms: _324  and  _325
REMARK  132  A    between atoms: _324  and  _327
REMARK  133  A    between atoms: _327  and  _328
REMARK  134  A    between atoms: _331  and  _333
REMARK  135  A    between atoms: _333  and  _334
REMARK  136  A    between atoms: _333  and  _336
REMARK  137  A    between atoms: _336  and  _337
REMARK  138  A    between atoms: _337  and  _338
REMARK  139  A    between atoms: _338  and  _339
REMARK  140  A    between atoms: _348  and  _350
REMARK  141  A    between atoms: _350  and  _351
REMARK  142  A    between atoms: _350  and  _353
REMARK  143  A    between atoms: _353  and  _354
REMARK                            x       y       z     vdW  Elec       q    Type
REMARK                         _______ _______ _______ _____ _____    ______ ____
ROOT
ATOM      1  O   HOH     1      17.242  11.375   2.799  0.00  0.00    +0.000 OA
ENDROOT
TORSDOF 0
REMARK  Name = ../refined-set-2016/1hi5/1hi5_pocket.pdb
REMARK  143 active torsions:
REMARK  status: ('A' for Active; 'I' for Inactive)
REMARK    1  A    between atoms: _1  and  _5
REMARK    2  A    between atoms: _5  and  _6
REMARK    3  A    between atoms: _5  and  _8
REMARK    4  A    between atoms: _8  and  _9
REMARK    5  A    between atoms: _9  and  _10
REMARK    6  A    between atoms: _12  and  _14
REMARK    7  A    between atoms: _14  and  _15
REMARK    8  A    between atoms: _14  and  _17
REMARK    9  A    between atoms: _17  and  _18
REMARK   10  A    between atoms: _18  and  _19
REMARK   11  A    between atoms: _19  and  _20
REMARK   12  A    between atoms: _20  and  _21
REMARK   13  A    between atoms: _25  and  _27
REMARK   14  A    between atoms: _27  and  _28
REMARK   15  A    between atoms: _27  and  _30
REMARK   16  A    between atoms: _30  and  _31
REMARK   17  A    between atoms: _41  and  _43
REMARK   18  A    between atoms: _43  and  _44
REMARK   19  A    between atoms: _43  and  _46
REMARK   20  A    between atoms: _46  and  _47
REMARK   21  A    between atoms: _57  and  _59
REMARK   22  A    between atoms: _59  and  _60
REMARK   23  A    between atoms: _59  and  _62
REMARK   24  A    between atoms: _62  and  _63
REMARK   25  A    between atoms: _69  and  _71
REMARK   26  A    between atoms: _71  and  _72
REMARK   27  A    between atoms: _71  and  _74
REMARK   28  A    between atoms: _74  and  _75
REMARK   29  A    between atoms: _75  and  _76
REMARK   30  A    between atoms: _81  and  _83
REMARK   31  A    between atoms: _83  and  _84
REMARK   32  A    between atoms: _83  and  _86
REMARK   33  A    between atoms: _86  and  _87
REMARK   34  A    between atoms: _92  and  _94
REMARK   35  A    between atoms: _94  and  _95
REMARK   36  A    between atoms: _94  and  _97
REMARK   37  A    between atoms: _97  and  _98
REMARK   38  A    between atoms: _98  and  _99
REMARK   39  A    between atoms: _101  and  _103
REMARK   40  A    between atoms: _103  and  _104
REMARK   41  A    between atoms: _103  and  _106
REMARK   42  A    between atoms: _106  and  _107
REMARK   43  A    between atoms: _110  and  _112
REMARK   44  A    between atoms: _112  and  _113
REMARK   45  A    between atoms: _112  and  _115
REMARK   46  A    between atoms: _115  and  _116
REMARK   47  A    between atoms: _116  and  _117
REMARK   48  A    between atoms: _122  and  _124
REMARK   49  A    between atoms: _124  and  _125
REMARK   50  A    between atoms: _124  and  _127
REMARK   51  A    between atoms: _127  and  _128
REMARK   52  A    between atoms: _128  and  _129
REMARK   53  A    between atoms: _129  and  _130
REMARK   54  A    between atoms: _139  and  _141
REMARK   55  A    between atoms: _141  and  _142
REMARK   56  A    between atoms: _141  and  _144
REMARK   57  A    between atoms: _146  and  _148
REMARK   58  A    between atoms: _148  and  _149
REMARK   59  A    between atoms: _148  and  _151
REMARK   60  A    between atoms: _151  and  _152
REMARK   61  A    between atoms: _152  and  _153
REMARK   62  A    between atoms: _153  and  _154
REMARK   63  A    between atoms: _154  and  _155
REMARK   64  A    between atoms: _159  and  _161
REMARK   65  A    between atoms: _161  and  _162
REMARK   66  A    between atoms: _161  and  _164
REMARK   67  A    between atoms: _164  and  _165
REMARK   68  A    between atoms: _170  and  _172
REMARK   69  A    between atoms: _172  and  _173
REMARK   70  A    between atoms: _172  and  _175
REMARK   71  A    between atoms: _175  and  _176
REMARK   72  A    between atoms: _176  and  _177
REMARK   73  A    between atoms: _182  and  _184
REMARK   74  A    between atoms: _184  and  _185
REMARK   75  A    between atoms: _184  and  _187
REMARK   76  A    between atoms: _187  and  _188
REMARK   77  A    between atoms: _193  and  _195
REMARK   78  A    between atoms: _195  and  _196
REMARK   79  A    between atoms: _195  and  _198
REMARK   80  A    between atoms: _198  and  _199
REMARK   81  A    between atoms: _202  and  _204
REMARK   82  A    between atoms: _204  and  _205
REMARK   83  A    between atoms: _204  and  _207
REMARK   84  A    between atoms: _207  and  _208
REMARK   85  A    between atoms: _210  and  _212
REMARK   86  A    between atoms: _212  and  _213
REMARK   87  A    between atoms: _212  and  _215
REMARK   88  A    between atoms: _215  and  _216
REMARK   89  A    between atoms: _221  and  _223
REMARK   90  A    between atoms: _223  and  _224
REMARK   91  A    between atoms: _223  and  _226
REMARK   92  A    between atoms: _228  and  _230
REMARK   93  A    between atoms: _230  and  _231
REMARK   94  A    between atoms: _230  and  _233
REMARK   95  A    between atoms: _233  and  _234
REMARK   96  A    between atoms: _239  and  _241
REMARK   97  A    between atoms: _241  and  _242
REMARK   98  A    between atoms: _241  and  _244
REMARK   99  A    between atoms: _244  and  _245
REMARK  100  A    between atoms: _248  and  _250
REMARK  101  A    between atoms: _250  and  _251
REMARK  102  A    between atoms: _250  and  _253
REMARK  103  A    between atoms: _253  and  _254
REMARK  104  A    between atoms: _259  and  _260
REMARK  105  A    between atoms: _262  and  _264
REMARK  106  A    between atoms: _264  and  _265
REMARK  107  A    between atoms: _264  and  _267
REMARK  108  A    between atoms: _267  and  _268
REMARK  109  A    between atoms: _268  and  _269
REMARK  110  A    between atoms: _271  and  _273
REMARK  111  A    between atoms: _273  and  _274
REMARK  112  A    between atoms: _273  and  _276
REMARK  113  A    between atoms: _276  and  _277
REMARK  114  A    between atoms: _280  and  _282
REMARK  115  A    between atoms: _282  and  _283
REMARK  116  A    between atoms: _282  and  _285
REMARK  117  A    between atoms: _288  and  _290
REMARK  118  A    between atoms: _290  and  _291
REMARK  119  A    between atoms: _294  and  _296
REMARK  120  A    between atoms: _296  and  _297
REMARK  121  A    between atoms: _296  and  _299
REMARK  122  A    between atoms: _302  and  _304
REMARK  123  A    between atoms: _304  and  _305
REMARK  124  A    between atoms: _304  and  _307
REMARK  125  A    between atoms: _307  and  _308
REMARK  126  A    between atoms: _313  and  _315
REMARK  127  A    between atoms: _315  and  _316
REMARK  128  A    between atoms: _315  and  _318
REMARK  129  A    between atoms: _318  and  _319
REMARK  130  A    between atoms: _322  and  _324
REMARK  131  A    between atoms: _324  and  _325
REMARK  132  A    between atoms: _324  and  _327
REMARK  133  A    between atoms: _327  and  _328
REMARK  134  A    between atoms: _331  and  _333
REMARK  135  A    between atoms: _333  and  _334
REMARK  136  A    between atoms: _333  and  _336
REMARK  137  A    between atoms: _336  and  _337
REMARK  138  A    between atoms: _337  and  _338
REMARK  139  A    between atoms: _338  and  _339
REMARK  140  A    between atoms: _348  and  _350
REMARK  141  A    between atoms: _350  and  _351
REMARK  142  A    between atoms: _350  and  _353
REMARK  143  A    between atoms: _353  and  _354
REMARK                            x       y       z     vdW  Elec       q    Type
REMARK                         _______ _______ _______ _____ _____    ______ ____
ROOT
ATOM      1  O   HOH     1      16.612  21.934   6.579  0.00  0.00    +0.000 OA
ENDROOT
TORSDOF 0
REMARK  Name = ../refined-set-2016/1hi5/1hi5_pocket.pdb
REMARK  143 active torsions:
REMARK  status: ('A' for Active; 'I' for Inactive)
REMARK    1  A    between atoms: _1  and  _5
REMARK    2  A    between atoms: _5  and  _6
REMARK    3  A    between atoms: _5  and  _8
REMARK    4  A    between atoms: _8  and  _9
REMARK    5  A    between atoms: _9  and  _10
REMARK    6  A    between atoms: _12  and  _14
REMARK    7  A    between atoms: _14  and  _15
REMARK    8  A    between atoms: _14  and  _17
REMARK    9  A    between atoms: _17  and  _18
REMARK   10  A    between atoms: _18  and  _19
REMARK   11  A    between atoms: _19  and  _20
REMARK   12  A    between atoms: _20  and  _21
REMARK   13  A    between atoms: _25  and  _27
REMARK   14  A    between atoms: _27  and  _28
REMARK   15  A    between atoms: _27  and  _30
REMARK   16  A    between atoms: _30  and  _31
REMARK   17  A    between atoms: _41  and  _43
REMARK   18  A    between atoms: _43  and  _44
REMARK   19  A    between atoms: _43  and  _46
REMARK   20  A    between atoms: _46  and  _47
REMARK   21  A    between atoms: _57  and  _59
REMARK   22  A    between atoms: _59  and  _60
REMARK   23  A    between atoms: _59  and  _62
REMARK   24  A    between atoms: _62  and  _63
REMARK   25  A    between atoms: _69  and  _71
REMARK   26  A    between atoms: _71  and  _72
REMARK   27  A    between atoms: _71  and  _74
REMARK   28  A    between atoms: _74  and  _75
REMARK   29  A    between atoms: _75  and  _76
REMARK   30  A    between atoms: _81  and  _83
REMARK   31  A    between atoms: _83  and  _84
REMARK   32  A    between atoms: _83  and  _86
REMARK   33  A    between atoms: _86  and  _87
REMARK   34  A    between atoms: _92  and  _94
REMARK   35  A    between atoms: _94  and  _95
REMARK   36  A    between atoms: _94  and  _97
REMARK   37  A    between atoms: _97  and  _98
REMARK   38  A    between atoms: _98  and  _99
REMARK   39  A    between atoms: _101  and  _103
REMARK   40  A    between atoms: _103  and  _104
REMARK   41  A    between atoms: _103  and  _106
REMARK   42  A    between atoms: _106  and  _107
REMARK   43  A    between atoms: _110  and  _112
REMARK   44  A    between atoms: _112  and  _113
REMARK   45  A    between atoms: _112  and  _115
REMARK   46  A    between atoms: _115  and  _116
REMARK   47  A    between atoms: _116  and  _117
REMARK   48  A    between atoms: _122  and  _124
REMARK   49  A    between atoms: _124  and  _125
REMARK   50  A    between atoms: _124  and  _127
REMARK   51  A    between atoms: _127  and  _128
REMARK   52  A    between atoms: _128  and  _129
REMARK   53  A    between atoms: _129  and  _130
REMARK   54  A    between atoms: _139  and  _141
REMARK   55  A    between atoms: _141  and  _142
REMARK   56  A    between atoms: _141  and  _144
REMARK   57  A    between atoms: _146  and  _148
REMARK   58  A    between atoms: _148  and  _149
REMARK   59  A    between atoms: _148  and  _151
REMARK   60  A    between atoms: _151  and  _152
REMARK   61  A    between atoms: _152  and  _153
REMARK   62  A    between atoms: _153  and  _154
REMARK   63  A    between atoms: _154  and  _155
REMARK   64  A    between atoms: _159  and  _161
REMARK   65  A    between atoms: _161  and  _162
REMARK   66  A    between atoms: _161  and  _164
REMARK   67  A    between atoms: _164  and  _165
REMARK   68  A    between atoms: _170  and  _172
REMARK   69  A    between atoms: _172  and  _173
REMARK   70  A    between atoms: _172  and  _175
REMARK   71  A    between atoms: _175  and  _176
REMARK   72  A    between atoms: _176  and  _177
REMARK   73  A    between atoms: _182  and  _184
REMARK   74  A    between atoms: _184  and  _185
REMARK   75  A    between atoms: _184  and  _187
REMARK   76  A    between atoms: _187  and  _188
REMARK   77  A    between atoms: _193  and  _195
REMARK   78  A    between atoms: _195  and  _196
REMARK   79  A    between atoms: _195  and  _198
REMARK   80  A    between atoms: _198  and  _199
REMARK   81  A    between atoms: _202  and  _204
REMARK   82  A    between atoms: _204  and  _205
REMARK   83  A    between atoms: _204  and  _207
REMARK   84  A    between atoms: _207  and  _208
REMARK   85  A    between atoms: _210  and  _212
REMARK   86  A    between atoms: _212  and  _213
REMARK   87  A    between atoms: _212  and  _215
REMARK   88  A    between atoms: _215  and  _216
REMARK   89  A    between atoms: _221  and  _223
REMARK   90  A    between atoms: _223  and  _224
REMARK   91  A    between atoms: _223  and  _226
REMARK   92  A    between atoms: _228  and  _230
REMARK   93  A    between atoms: _230  and  _231
REMARK   94  A    between atoms: _230  and  _233
REMARK   95  A    between atoms: _233  and  _234
REMARK   96  A    between atoms: _239  and  _241
REMARK   97  A    between atoms: _241  and  _242
REMARK   98  A    between atoms: _241  and  _244
REMARK   99  A    between atoms: _244  and  _245
REMARK  100  A    between atoms: _248  and  _250
REMARK  101  A    between atoms: _250  and  _251
REMARK  102  A    between atoms: _250  and  _253
REMARK  103  A    between atoms: _253  and  _254
REMARK  104  A    between atoms: _259  and  _260
REMARK  105  A    between atoms: _262  and  _264
REMARK  106  A    between atoms: _264  and  _265
REMARK  107  A    between atoms: _264  and  _267
REMARK  108  A    between atoms: _267  and  _268
REMARK  109  A    between atoms: _268  and  _269
REMARK  110  A    between atoms: _271  and  _273
REMARK  111  A    between atoms: _273  and  _274
REMARK  112  A    between atoms: _273  and  _276
REMARK  113  A    between atoms: _276  and  _277
REMARK  114  A    between atoms: _280  and  _282
REMARK  115  A    between atoms: _282  and  _283
REMARK  116  A    between atoms: _282  and  _285
REMARK  117  A    between atoms: _288  and  _290
REMARK  118  A    between atoms: _290  and  _291
REMARK  119  A    between atoms: _294  and  _296
REMARK  120  A    between atoms: _296  and  _297
REMARK  121  A    between atoms: _296  and  _299
REMARK  122  A    between atoms: _302  and  _304
REMARK  123  A    between atoms: _304  and  _305
REMARK  124  A    between atoms: _304  and  _307
REMARK  125  A    between atoms: _307  and  _308
REMARK  126  A    between atoms: _313  and  _315
REMARK  127  A    between atoms: _315  and  _316
REMARK  128  A    between atoms: _315  and  _318
REMARK  129  A    between atoms: _318  and  _319
REMARK  130  A    between atoms: _322  and  _324
REMARK  131  A    between atoms: _324  and  _325
REMARK  132  A    between atoms: _324  and  _327
REMARK  133  A    between atoms: _327  and  _328
REMARK  134  A    between atoms: _331  and  _333
REMARK  135  A    between atoms: _333  and  _334
REMARK  136  A    between atoms: _333  and  _336
REMARK  137  A    between atoms: _336  and  _337
REMARK  138  A    between atoms: _337  and  _338
REMARK  139  A    between atoms: _338  and  _339
REMARK  140  A    between atoms: _348  and  _350
REMARK  141  A    between atoms: _350  and  _351
REMARK  142  A    between atoms: _350  and  _353
REMARK  143  A    between atoms: _353  and  _354
REMARK                            x       y       z     vdW  Elec       q    Type
REMARK                         _______ _______ _______ _____ _____    ______ ____
ROOT
ATOM      1  O   HOH     1      18.439  21.701  13.231  0.00  0.00    +0.000 OA
ENDROOT
TORSDOF 0
REMARK  Name = ../refined-set-2016/1hi5/1hi5_pocket.pdb
REMARK  143 active torsions:
REMARK  status: ('A' for Active; 'I' for Inactive)
REMARK    1  A    between atoms: _1  and  _5
REMARK    2  A    between atoms: _5  and  _6
REMARK    3  A    between atoms: _5  and  _8
REMARK    4  A    between atoms: _8  and  _9
REMARK    5  A    between atoms: _9  and  _10
REMARK    6  A    between atoms: _12  and  _14
REMARK    7  A    between atoms: _14  and  _15
REMARK    8  A    between atoms: _14  and  _17
REMARK    9  A    between atoms: _17  and  _18
REMARK   10  A    between atoms: _18  and  _19
REMARK   11  A    between atoms: _19  and  _20
REMARK   12  A    between atoms: _20  and  _21
REMARK   13  A    between atoms: _25  and  _27
REMARK   14  A    between atoms: _27  and  _28
REMARK   15  A    between atoms: _27  and  _30
REMARK   16  A    between atoms: _30  and  _31
REMARK   17  A    between atoms: _41  and  _43
REMARK   18  A    between atoms: _43  and  _44
REMARK   19  A    between atoms: _43  and  _46
REMARK   20  A    between atoms: _46  and  _47
REMARK   21  A    between atoms: _57  and  _59
REMARK   22  A    between atoms: _59  and  _60
REMARK   23  A    between atoms: _59  and  _62
REMARK   24  A    between atoms: _62  and  _63
REMARK   25  A    between atoms: _69  and  _71
REMARK   26  A    between atoms: _71  and  _72
REMARK   27  A    between atoms: _71  and  _74
REMARK   28  A    between atoms: _74  and  _75
REMARK   29  A    between atoms: _75  and  _76
REMARK   30  A    between atoms: _81  and  _83
REMARK   31  A    between atoms: _83  and  _84
REMARK   32  A    between atoms: _83  and  _86
REMARK   33  A    between atoms: _86  and  _87
REMARK   34  A    between atoms: _92  and  _94
REMARK   35  A    between atoms: _94  and  _95
REMARK   36  A    between atoms: _94  and  _97
REMARK   37  A    between atoms: _97  and  _98
REMARK   38  A    between atoms: _98  and  _99
REMARK   39  A    between atoms: _101  and  _103
REMARK   40  A    between atoms: _103  and  _104
REMARK   41  A    between atoms: _103  and  _106
REMARK   42  A    between atoms: _106  and  _107
REMARK   43  A    between atoms: _110  and  _112
REMARK   44  A    between atoms: _112  and  _113
REMARK   45  A    between atoms: _112  and  _115
REMARK   46  A    between atoms: _115  and  _116
REMARK   47  A    between atoms: _116  and  _117
REMARK   48  A    between atoms: _122  and  _124
REMARK   49  A    between atoms: _124  and  _125
REMARK   50  A    between atoms: _124  and  _127
REMARK   51  A    between atoms: _127  and  _128
REMARK   52  A    between atoms: _128  and  _129
REMARK   53  A    between atoms: _129  and  _130
REMARK   54  A    between atoms: _139  and  _141
REMARK   55  A    between atoms: _141  and  _142
REMARK   56  A    between atoms: _141  and  _144
REMARK   57  A    between atoms: _146  and  _148
REMARK   58  A    between atoms: _148  and  _149
REMARK   59  A    between atoms: _148  and  _151
REMARK   60  A    between atoms: _151  and  _152
REMARK   61  A    between atoms: _152  and  _153
REMARK   62  A    between atoms: _153  and  _154
REMARK   63  A    between atoms: _154  and  _155
REMARK   64  A    between atoms: _159  and  _161
REMARK   65  A    between atoms: _161  and  _162
REMARK   66  A    between atoms: _161  and  _164
REMARK   67  A    between atoms: _164  and  _165
REMARK   68  A    between atoms: _170  and  _172
REMARK   69  A    between atoms: _172  and  _173
REMARK   70  A    between atoms: _172  and  _175
REMARK   71  A    between atoms: _175  and  _176
REMARK   72  A    between atoms: _176  and  _177
REMARK   73  A    between atoms: _182  and  _184
REMARK   74  A    between atoms: _184  and  _185
REMARK   75  A    between atoms: _184  and  _187
REMARK   76  A    between atoms: _187  and  _188
REMARK   77  A    between atoms: _193  and  _195
REMARK   78  A    between atoms: _195  and  _196
REMARK   79  A    between atoms: _195  and  _198
REMARK   80  A    between atoms: _198  and  _199
REMARK   81  A    between atoms: _202  and  _204
REMARK   82  A    between atoms: _204  and  _205
REMARK   83  A    between atoms: _204  and  _207
REMARK   84  A    between atoms: _207  and  _208
REMARK   85  A    between atoms: _210  and  _212
REMARK   86  A    between atoms: _212  and  _213
REMARK   87  A    between atoms: _212  and  _215
REMARK   88  A    between atoms: _215  and  _216
REMARK   89  A    between atoms: _221  and  _223
REMARK   90  A    between atoms: _223  and  _224
REMARK   91  A    between atoms: _223  and  _226
REMARK   92  A    between atoms: _228  and  _230
REMARK   93  A    between atoms: _230  and  _231
REMARK   94  A    between atoms: _230  and  _233
REMARK   95  A    between atoms: _233  and  _234
REMARK   96  A    between atoms: _239  and  _241
REMARK   97  A    between atoms: _241  and  _242
REMARK   98  A    between atoms: _241  and  _244
REMARK   99  A    between atoms: _244  and  _245
REMARK  100  A    between atoms: _248  and  _250
REMARK  101  A    between atoms: _250  and  _251
REMARK  102  A    between atoms: _250  and  _253
REMARK  103  A    between atoms: _253  and  _254
REMARK  104  A    between atoms: _259  and  _260
REMARK  105  A    between atoms: _262  and  _264
REMARK  106  A    between atoms: _264  and  _265
REMARK  107  A    between atoms: _264  and  _267
REMARK  108  A    between atoms: _267  and  _268
REMARK  109  A    between atoms: _268  and  _269
REMARK  110  A    between atoms: _271  and  _273
REMARK  111  A    between atoms: _273  and  _274
REMARK  112  A    between atoms: _273  and  _276
REMARK  113  A    between atoms: _276  and  _277
REMARK  114  A    between atoms: _280  and  _282
REMARK  115  A    between atoms: _282  and  _283
REMARK  116  A    between atoms: _282  and  _285
REMARK  117  A    between atoms: _288  and  _290
REMARK  118  A    between atoms: _290  and  _291
REMARK  119  A    between atoms: _294  and  _296
REMARK  120  A    between atoms: _296  and  _297
REMARK  121  A    between atoms: _296  and  _299
REMARK  122  A    between atoms: _302  and  _304
REMARK  123  A    between atoms: _304  and  _305
REMARK  124  A    between atoms: _304  and  _307
REMARK  125  A    between atoms: _307  and  _308
REMARK  126  A    between atoms: _313  and  _315
REMARK  127  A    between atoms: _315  and  _316
REMARK  128  A    between atoms: _315  and  _318
REMARK  129  A    between atoms: _318  and  _319
REMARK  130  A    between atoms: _322  and  _324
REMARK  131  A    between atoms: _324  and  _325
REMARK  132  A    between atoms: _324  and  _327
REMARK  133  A    between atoms: _327  and  _328
REMARK  134  A    between atoms: _331  and  _333
REMARK  135  A    between atoms: _333  and  _334
REMARK  136  A    between atoms: _333  and  _336
REMARK  137  A    between atoms: _336  and  _337
REMARK  138  A    between atoms: _337  and  _338
REMARK  139  A    between atoms: _338  and  _339
REMARK  140  A    between atoms: _348  and  _350
REMARK  141  A    between atoms: _350  and  _351
REMARK  142  A    between atoms: _350  and  _353
REMARK  143  A    between atoms: _353  and  _354
REMARK                            x       y       z     vdW  Elec       q    Type
REMARK                         _______ _______ _______ _____ _____    ______ ____
ROOT
ATOM      1  O   HOH     1      15.440  13.992  15.030  0.00  0.00    +0.000 OA
ENDROOT
TORSDOF 0
REMARK  Name = ../refined-set-2016/1hi5/1hi5_pocket.pdb
REMARK  143 active torsions:
REMARK  status: ('A' for Active; 'I' for Inactive)
REMARK    1  A    between atoms: _1  and  _5
REMARK    2  A    between atoms: _5  and  _6
REMARK    3  A    between atoms: _5  and  _8
REMARK    4  A    between atoms: _8  and  _9
REMARK    5  A    between atoms: _9  and  _10
REMARK    6  A    between atoms: _12  and  _14
REMARK    7  A    between atoms: _14  and  _15
REMARK    8  A    between atoms: _14  and  _17
REMARK    9  A    between atoms: _17  and  _18
REMARK   10  A    between atoms: _18  and  _19
REMARK   11  A    between atoms: _19  and  _20
REMARK   12  A    between atoms: _20  and  _21
REMARK   13  A    between atoms: _25  and  _27
REMARK   14  A    between atoms: _27  and  _28
REMARK   15  A    between atoms: _27  and  _30
REMARK   16  A    between atoms: _30  and  _31
REMARK   17  A    between atoms: _41  and  _43
REMARK   18  A    between atoms: _43  and  _44
REMARK   19  A    between atoms: _43  and  _46
REMARK   20  A    between atoms: _46  and  _47
REMARK   21  A    between atoms: _57  and  _59
REMARK   22  A    between atoms: _59  and  _60
REMARK   23  A    between atoms: _59  and  _62
REMARK   24  A    between atoms: _62  and  _63
REMARK   25  A    between atoms: _69  and  _71
REMARK   26  A    between atoms: _71  and  _72
REMARK   27  A    between atoms: _71  and  _74
REMARK   28  A    between atoms: _74  and  _75
REMARK   29  A    between atoms: _75  and  _76
REMARK   30  A    between atoms: _81  and  _83
REMARK   31  A    between atoms: _83  and  _84
REMARK   32  A    between atoms: _83  and  _86
REMARK   33  A    between atoms: _86  and  _87
REMARK   34  A    between atoms: _92  and  _94
REMARK   35  A    between atoms: _94  and  _95
REMARK   36  A    between atoms: _94  and  _97
REMARK   37  A    between atoms: _97  and  _98
REMARK   38  A    between atoms: _98  and  _99
REMARK   39  A    between atoms: _101  and  _103
REMARK   40  A    between atoms: _103  and  _104
REMARK   41  A    between atoms: _103  and  _106
REMARK   42  A    between atoms: _106  and  _107
REMARK   43  A    between atoms: _110  and  _112
REMARK   44  A    between atoms: _112  and  _113
REMARK   45  A    between atoms: _112  and  _115
REMARK   46  A    between atoms: _115  and  _116
REMARK   47  A    between atoms: _116  and  _117
REMARK   48  A    between atoms: _122  and  _124
REMARK   49  A    between atoms: _124  and  _125
REMARK   50  A    between atoms: _124  and  _127
REMARK   51  A    between atoms: _127  and  _128
REMARK   52  A    between atoms: _128  and  _129
REMARK   53  A    between atoms: _129  and  _130
REMARK   54  A    between atoms: _139  and  _141
REMARK   55  A    between atoms: _141  and  _142
REMARK   56  A    between atoms: _141  and  _144
REMARK   57  A    between atoms: _146  and  _148
REMARK   58  A    between atoms: _148  and  _149
REMARK   59  A    between atoms: _148  and  _151
REMARK   60  A    between atoms: _151  and  _152
REMARK   61  A    between atoms: _152  and  _153
REMARK   62  A    between atoms: _153  and  _154
REMARK   63  A    between atoms: _154  and  _155
REMARK   64  A    between atoms: _159  and  _161
REMARK   65  A    between atoms: _161  and  _162
REMARK   66  A    between atoms: _161  and  _164
REMARK   67  A    between atoms: _164  and  _165
REMARK   68  A    between atoms: _170  and  _172
REMARK   69  A    between atoms: _172  and  _173
REMARK   70  A    between atoms: _172  and  _175
REMARK   71  A    between atoms: _175  and  _176
REMARK   72  A    between atoms: _176  and  _177
REMARK   73  A    between atoms: _182  and  _184
REMARK   74  A    between atoms: _184  and  _185
REMARK   75  A    between atoms: _184  and  _187
REMARK   76  A    between atoms: _187  and  _188
REMARK   77  A    between atoms: _193  and  _195
REMARK   78  A    between atoms: _195  and  _196
REMARK   79  A    between atoms: _195  and  _198
REMARK   80  A    between atoms: _198  and  _199
REMARK   81  A    between atoms: _202  and  _204
REMARK   82  A    between atoms: _204  and  _205
REMARK   83  A    between atoms: _204  and  _207
REMARK   84  A    between atoms: _207  and  _208
REMARK   85  A    between atoms: _210  and  _212
REMARK   86  A    between atoms: _212  and  _213
REMARK   87  A    between atoms: _212  and  _215
REMARK   88  A    between atoms: _215  and  _216
REMARK   89  A    between atoms: _221  and  _223
REMARK   90  A    between atoms: _223  and  _224
REMARK   91  A    between atoms: _223  and  _226
REMARK   92  A    between atoms: _228  and  _230
REMARK   93  A    between atoms: _230  and  _231
REMARK   94  A    between atoms: _230  and  _233
REMARK   95  A    between atoms: _233  and  _234
REMARK   96  A    between atoms: _239  and  _241
REMARK   97  A    between atoms: _241  and  _242
REMARK   98  A    between atoms: _241  and  _244
REMARK   99  A    between atoms: _244  and  _245
REMARK  100  A    between atoms: _248  and  _250
REMARK  101  A    between atoms: _250  and  _251
REMARK  102  A    between atoms: _250  and  _253
REMARK  103  A    between atoms: _253  and  _254
REMARK  104  A    between atoms: _259  and  _260
REMARK  105  A    between atoms: _262  and  _264
REMARK  106  A    between atoms: _264  and  _265
REMARK  107  A    between atoms: _264  and  _267
REMARK  108  A    between atoms: _267  and  _268
REMARK  109  A    between atoms: _268  and  _269
REMARK  110  A    between atoms: _271  and  _273
REMARK  111  A    between atoms: _273  and  _274
REMARK  112  A    between atoms: _273  and  _276
REMARK  113  A    between atoms: _276  and  _277
REMARK  114  A    between atoms: _280  and  _282
REMARK  115  A    between atoms: _282  and  _283
REMARK  116  A    between atoms: _282  and  _285
REMARK  117  A    between atoms: _288  and  _290
REMARK  118  A    between atoms: _290  and  _291
REMARK  119  A    between atoms: _294  and  _296
REMARK  120  A    between atoms: _296  and  _297
REMARK  121  A    between atoms: _296  and  _299
REMARK  122  A    between atoms: _302  and  _304
REMARK  123  A    between atoms: _304  and  _305
REMARK  124  A    between atoms: _304  and  _307
REMARK  125  A    between atoms: _307  and  _308
REMARK  126  A    between atoms: _313  and  _315
REMARK  127  A    between atoms: _315  and  _316
REMARK  128  A    between atoms: _315  and  _318
REMARK  129  A    between atoms: _318  and  _319
REMARK  130  A    between atoms: _322  and  _324
REMARK  131  A    between atoms: _324  and  _325
REMARK  132  A    between atoms: _324  and  _327
REMARK  133  A    between atoms: _327  and  _328
REMARK  134  A    between atoms: _331  and  _333
REMARK  135  A    between atoms: _333  and  _334
REMARK  136  A    between atoms: _333  and  _336
REMARK  137  A    between atoms: _336  and  _337
REMARK  138  A    between atoms: _337  and  _338
REMARK  139  A    between atoms: _338  and  _339
REMARK  140  A    between atoms: _348  and  _350
REMARK  141  A    between atoms: _350  and  _351
REMARK  142  A    between atoms: _350  and  _353
REMARK  143  A    between atoms: _353  and  _354
REMARK                            x       y       z     vdW  Elec       q    Type
REMARK                         _______ _______ _______ _____ _____    ______ ____
ROOT
ATOM      1  O   HOH     1      15.166  20.677  15.831  0.00  0.00    +0.000 OA
ENDROOT
TORSDOF 0
REMARK  Name = ../refined-set-2016/1hi5/1hi5_pocket.pdb
REMARK  143 active torsions:
REMARK  status: ('A' for Active; 'I' for Inactive)
REMARK    1  A    between atoms: _1  and  _5
REMARK    2  A    between atoms: _5  and  _6
REMARK    3  A    between atoms: _5  and  _8
REMARK    4  A    between atoms: _8  and  _9
REMARK    5  A    between atoms: _9  and  _10
REMARK    6  A    between atoms: _12  and  _14
REMARK    7  A    between atoms: _14  and  _15
REMARK    8  A    between atoms: _14  and  _17
REMARK    9  A    between atoms: _17  and  _18
REMARK   10  A    between atoms: _18  and  _19
REMARK   11  A    between atoms: _19  and  _20
REMARK   12  A    between atoms: _20  and  _21
REMARK   13  A    between atoms: _25  and  _27
REMARK   14  A    between atoms: _27  and  _28
REMARK   15  A    between atoms: _27  and  _30
REMARK   16  A    between atoms: _30  and  _31
REMARK   17  A    between atoms: _41  and  _43
REMARK   18  A    between atoms: _43  and  _44
REMARK   19  A    between atoms: _43  and  _46
REMARK   20  A    between atoms: _46  and  _47
REMARK   21  A    between atoms: _57  and  _59
REMARK   22  A    between atoms: _59  and  _60
REMARK   23  A    between atoms: _59  and  _62
REMARK   24  A    between atoms: _62  and  _63
REMARK   25  A    between atoms: _69  and  _71
REMARK   26  A    between atoms: _71  and  _72
REMARK   27  A    between atoms: _71  and  _74
REMARK   28  A    between atoms: _74  and  _75
REMARK   29  A    between atoms: _75  and  _76
REMARK   30  A    between atoms: _81  and  _83
REMARK   31  A    between atoms: _83  and  _84
REMARK   32  A    between atoms: _83  and  _86
REMARK   33  A    between atoms: _86  and  _87
REMARK   34  A    between atoms: _92  and  _94
REMARK   35  A    between atoms: _94  and  _95
REMARK   36  A    between atoms: _94  and  _97
REMARK   37  A    between atoms: _97  and  _98
REMARK   38  A    between atoms: _98  and  _99
REMARK   39  A    between atoms: _101  and  _103
REMARK   40  A    between atoms: _103  and  _104
REMARK   41  A    between atoms: _103  and  _106
REMARK   42  A    between atoms: _106  and  _107
REMARK   43  A    between atoms: _110  and  _112
REMARK   44  A    between atoms: _112  and  _113
REMARK   45  A    between atoms: _112  and  _115
REMARK   46  A    between atoms: _115  and  _116
REMARK   47  A    between atoms: _116  and  _117
REMARK   48  A    between atoms: _122  and  _124
REMARK   49  A    between atoms: _124  and  _125
REMARK   50  A    between atoms: _124  and  _127
REMARK   51  A    between atoms: _127  and  _128
REMARK   52  A    between atoms: _128  and  _129
REMARK   53  A    between atoms: _129  and  _130
REMARK   54  A    between atoms: _139  and  _141
REMARK   55  A    between atoms: _141  and  _142
REMARK   56  A    between atoms: _141  and  _144
REMARK   57  A    between atoms: _146  and  _148
REMARK   58  A    between atoms: _148  and  _149
REMARK   59  A    between atoms: _148  and  _151
REMARK   60  A    between atoms: _151  and  _152
REMARK   61  A    between atoms: _152  and  _153
REMARK   62  A    between atoms: _153  and  _154
REMARK   63  A    between atoms: _154  and  _155
REMARK   64  A    between atoms: _159  and  _161
REMARK   65  A    between atoms: _161  and  _162
REMARK   66  A    between atoms: _161  and  _164
REMARK   67  A    between atoms: _164  and  _165
REMARK   68  A    between atoms: _170  and  _172
REMARK   69  A    between atoms: _172  and  _173
REMARK   70  A    between atoms: _172  and  _175
REMARK   71  A    between atoms: _175  and  _176
REMARK   72  A    between atoms: _176  and  _177
REMARK   73  A    between atoms: _182  and  _184
REMARK   74  A    between atoms: _184  and  _185
REMARK   75  A    between atoms: _184  and  _187
REMARK   76  A    between atoms: _187  and  _188
REMARK   77  A    between atoms: _193  and  _195
REMARK   78  A    between atoms: _195  and  _196
REMARK   79  A    between atoms: _195  and  _198
REMARK   80  A    between atoms: _198  and  _199
REMARK   81  A    between atoms: _202  and  _204
REMARK   82  A    between atoms: _204  and  _205
REMARK   83  A    between atoms: _204  and  _207
REMARK   84  A    between atoms: _207  and  _208
REMARK   85  A    between atoms: _210  and  _212
REMARK   86  A    between atoms: _212  and  _213
REMARK   87  A    between atoms: _212  and  _215
REMARK   88  A    between atoms: _215  and  _216
REMARK   89  A    between atoms: _221  and  _223
REMARK   90  A    between atoms: _223  and  _224
REMARK   91  A    between atoms: _223  and  _226
REMARK   92  A    between atoms: _228  and  _230
REMARK   93  A    between atoms: _230  and  _231
REMARK   94  A    between atoms: _230  and  _233
REMARK   95  A    between atoms: _233  and  _234
REMARK   96  A    between atoms: _239  and  _241
REMARK   97  A    between atoms: _241  and  _242
REMARK   98  A    between atoms: _241  and  _244
REMARK   99  A    between atoms: _244  and  _245
REMARK  100  A    between atoms: _248  and  _250
REMARK  101  A    between atoms: _250  and  _251
REMARK  102  A    between atoms: _250  and  _253
REMARK  103  A    between atoms: _253  and  _254
REMARK  104  A    between atoms: _259  and  _260
REMARK  105  A    between atoms: _262  and  _264
REMARK  106  A    between atoms: _264  and  _265
REMARK  107  A    between atoms: _264  and  _267
REMARK  108  A    between atoms: _267  and  _268
REMARK  109  A    between atoms: _268  and  _269
REMARK  110  A    between atoms: _271  and  _273
REMARK  111  A    between atoms: _273  and  _274
REMARK  112  A    between atoms: _273  and  _276
REMARK  113  A    between atoms: _276  and  _277
REMARK  114  A    between atoms: _280  and  _282
REMARK  115  A    between atoms: _282  and  _283
REMARK  116  A    between atoms: _282  and  _285
REMARK  117  A    between atoms: _288  and  _290
REMARK  118  A    between atoms: _290  and  _291
REMARK  119  A    between atoms: _294  and  _296
REMARK  120  A    between atoms: _296  and  _297
REMARK  121  A    between atoms: _296  and  _299
REMARK  122  A    between atoms: _302  and  _304
REMARK  123  A    between atoms: _304  and  _305
REMARK  124  A    between atoms: _304  and  _307
REMARK  125  A    between atoms: _307  and  _308
REMARK  126  A    between atoms: _313  and  _315
REMARK  127  A    between atoms: _315  and  _316
REMARK  128  A    between atoms: _315  and  _318
REMARK  129  A    between atoms: _318  and  _319
REMARK  130  A    between atoms: _322  and  _324
REMARK  131  A    between atoms: _324  and  _325
REMARK  132  A    between atoms: _324  and  _327
REMARK  133  A    between atoms: _327  and  _328
REMARK  134  A    between atoms: _331  and  _333
REMARK  135  A    between atoms: _333  and  _334
REMARK  136  A    between atoms: _333  and  _336
REMARK  137  A    between atoms: _336  and  _337
REMARK  138  A    between atoms: _337  and  _338
REMARK  139  A    between atoms: _338  and  _339
REMARK  140  A    between atoms: _348  and  _350
REMARK  141  A    between atoms: _350  and  _351
REMARK  142  A    between atoms: _350  and  _353
REMARK  143  A    between atoms: _353  and  _354
REMARK                            x       y       z     vdW  Elec       q    Type
REMARK                         _______ _______ _______ _____ _____    ______ ____
ROOT
ATOM      1  O   HOH     1      16.199  16.755   5.447  0.00  0.00    +0.000 OA
ENDROOT
TORSDOF 0
REMARK  Name = ../refined-set-2016/1hi5/1hi5_pocket.pdb
REMARK  143 active torsions:
REMARK  status: ('A' for Active; 'I' for Inactive)
REMARK    1  A    between atoms: _1  and  _5
REMARK    2  A    between atoms: _5  and  _6
REMARK    3  A    between atoms: _5  and  _8
REMARK    4  A    between atoms: _8  and  _9
REMARK    5  A    between atoms: _9  and  _10
REMARK    6  A    between atoms: _12  and  _14
REMARK    7  A    between atoms: _14  and  _15
REMARK    8  A    between atoms: _14  and  _17
REMARK    9  A    between atoms: _17  and  _18
REMARK   10  A    between atoms: _18  and  _19
REMARK   11  A    between atoms: _19  and  _20
REMARK   12  A    between atoms: _20  and  _21
REMARK   13  A    between atoms: _25  and  _27
REMARK   14  A    between atoms: _27  and  _28
REMARK   15  A    between atoms: _27  and  _30
REMARK   16  A    between atoms: _30  and  _31
REMARK   17  A    between atoms: _41  and  _43
REMARK   18  A    between atoms: _43  and  _44
REMARK   19  A    between atoms: _43  and  _46
REMARK   20  A    between atoms: _46  and  _47
REMARK   21  A    between atoms: _57  and  _59
REMARK   22  A    between atoms: _59  and  _60
REMARK   23  A    between atoms: _59  and  _62
REMARK   24  A    between atoms: _62  and  _63
REMARK   25  A    between atoms: _69  and  _71
REMARK   26  A    between atoms: _71  and  _72
REMARK   27  A    between atoms: _71  and  _74
REMARK   28  A    between atoms: _74  and  _75
REMARK   29  A    between atoms: _75  and  _76
REMARK   30  A    between atoms: _81  and  _83
REMARK   31  A    between atoms: _83  and  _84
REMARK   32  A    between atoms: _83  and  _86
REMARK   33  A    between atoms: _86  and  _87
REMARK   34  A    between atoms: _92  and  _94
REMARK   35  A    between atoms: _94  and  _95
REMARK   36  A    between atoms: _94  and  _97
REMARK   37  A    between atoms: _97  and  _98
REMARK   38  A    between atoms: _98  and  _99
REMARK   39  A    between atoms: _101  and  _103
REMARK   40  A    between atoms: _103  and  _104
REMARK   41  A    between atoms: _103  and  _106
REMARK   42  A    between atoms: _106  and  _107
REMARK   43  A    between atoms: _110  and  _112
REMARK   44  A    between atoms: _112  and  _113
REMARK   45  A    between atoms: _112  and  _115
REMARK   46  A    between atoms: _115  and  _116
REMARK   47  A    between atoms: _116  and  _117
REMARK   48  A    between atoms: _122  and  _124
REMARK   49  A    between atoms: _124  and  _125
REMARK   50  A    between atoms: _124  and  _127
REMARK   51  A    between atoms: _127  and  _128
REMARK   52  A    between atoms: _128  and  _129
REMARK   53  A    between atoms: _129  and  _130
REMARK   54  A    between atoms: _139  and  _141
REMARK   55  A    between atoms: _141  and  _142
REMARK   56  A    between atoms: _141  and  _144
REMARK   57  A    between atoms: _146  and  _148
REMARK   58  A    between atoms: _148  and  _149
REMARK   59  A    between atoms: _148  and  _151
REMARK   60  A    between atoms: _151  and  _152
REMARK   61  A    between atoms: _152  and  _153
REMARK   62  A    between atoms: _153  and  _154
REMARK   63  A    between atoms: _154  and  _155
REMARK   64  A    between atoms: _159  and  _161
REMARK   65  A    between atoms: _161  and  _162
REMARK   66  A    between atoms: _161  and  _164
REMARK   67  A    between atoms: _164  and  _165
REMARK   68  A    between atoms: _170  and  _172
REMARK   69  A    between atoms: _172  and  _173
REMARK   70  A    between atoms: _172  and  _175
REMARK   71  A    between atoms: _175  and  _176
REMARK   72  A    between atoms: _176  and  _177
REMARK   73  A    between atoms: _182  and  _184
REMARK   74  A    between atoms: _184  and  _185
REMARK   75  A    between atoms: _184  and  _187
REMARK   76  A    between atoms: _187  and  _188
REMARK   77  A    between atoms: _193  and  _195
REMARK   78  A    between atoms: _195  and  _196
REMARK   79  A    between atoms: _195  and  _198
REMARK   80  A    between atoms: _198  and  _199
REMARK   81  A    between atoms: _202  and  _204
REMARK   82  A    between atoms: _204  and  _205
REMARK   83  A    between atoms: _204  and  _207
REMARK   84  A    between atoms: _207  and  _208
REMARK   85  A    between atoms: _210  and  _212
REMARK   86  A    between atoms: _212  and  _213
REMARK   87  A    between atoms: _212  and  _215
REMARK   88  A    between atoms: _215  and  _216
REMARK   89  A    between atoms: _221  and  _223
REMARK   90  A    between atoms: _223  and  _224
REMARK   91  A    between atoms: _223  and  _226
REMARK   92  A    between atoms: _228  and  _230
REMARK   93  A    between atoms: _230  and  _231
REMARK   94  A    between atoms: _230  and  _233
REMARK   95  A    between atoms: _233  and  _234
REMARK   96  A    between atoms: _239  and  _241
REMARK   97  A    between atoms: _241  and  _242
REMARK   98  A    between atoms: _241  and  _244
REMARK   99  A    between atoms: _244  and  _245
REMARK  100  A    between atoms: _248  and  _250
REMARK  101  A    between atoms: _250  and  _251
REMARK  102  A    between atoms: _250  and  _253
REMARK  103  A    between atoms: _253  and  _254
REMARK  104  A    between atoms: _259  and  _260
REMARK  105  A    between atoms: _262  and  _264
REMARK  106  A    between atoms: _264  and  _265
REMARK  107  A    between atoms: _264  and  _267
REMARK  108  A    between atoms: _267  and  _268
REMARK  109  A    between atoms: _268  and  _269
REMARK  110  A    between atoms: _271  and  _273
REMARK  111  A    between atoms: _273  and  _274
REMARK  112  A    between atoms: _273  and  _276
REMARK  113  A    between atoms: _276  and  _277
REMARK  114  A    between atoms: _280  and  _282
REMARK  115  A    between atoms: _282  and  _283
REMARK  116  A    between atoms: _282  and  _285
REMARK  117  A    between atoms: _288  and  _290
REMARK  118  A    between atoms: _290  and  _291
REMARK  119  A    between atoms: _294  and  _296
REMARK  120  A    between atoms: _296  and  _297
REMARK  121  A    between atoms: _296  and  _299
REMARK  122  A    between atoms: _302  and  _304
REMARK  123  A    between atoms: _304  and  _305
REMARK  124  A    between atoms: _304  and  _307
REMARK  125  A    between atoms: _307  and  _308
REMARK  126  A    between atoms: _313  and  _315
REMARK  127  A    between atoms: _315  and  _316
REMARK  128  A    between atoms: _315  and  _318
REMARK  129  A    between atoms: _318  and  _319
REMARK  130  A    between atoms: _322  and  _324
REMARK  131  A    between atoms: _324  and  _325
REMARK  132  A    between atoms: _324  and  _327
REMARK  133  A    between atoms: _327  and  _328
REMARK  134  A    between atoms: _331  and  _333
REMARK  135  A    between atoms: _333  and  _334
REMARK  136  A    between atoms: _333  and  _336
REMARK  137  A    between atoms: _336  and  _337
REMARK  138  A    between atoms: _337  and  _338
REMARK  139  A    between atoms: _338  and  _339
REMARK  140  A    between atoms: _348  and  _350
REMARK  141  A    between atoms: _350  and  _351
REMARK  142  A    between atoms: _350  and  _353
REMARK  143  A    between atoms: _353  and  _354
REMARK                            x       y       z     vdW  Elec       q    Type
REMARK                         _______ _______ _______ _____ _____    ______ ____
ROOT
ATOM      1  O   HOH     1      18.616  19.127   8.846  0.00  0.00    +0.000 OA
ENDROOT
TORSDOF 0
REMARK  Name = ../refined-set-2016/1hi5/1hi5_pocket.pdb
REMARK  143 active torsions:
REMARK  status: ('A' for Active; 'I' for Inactive)
REMARK    1  A    between atoms: _1  and  _5
REMARK    2  A    between atoms: _5  and  _6
REMARK    3  A    between atoms: _5  and  _8
REMARK    4  A    between atoms: _8  and  _9
REMARK    5  A    between atoms: _9  and  _10
REMARK    6  A    between atoms: _12  and  _14
REMARK    7  A    between atoms: _14  and  _15
REMARK    8  A    between atoms: _14  and  _17
REMARK    9  A    between atoms: _17  and  _18
REMARK   10  A    between atoms: _18  and  _19
REMARK   11  A    between atoms: _19  and  _20
REMARK   12  A    between atoms: _20  and  _21
REMARK   13  A    between atoms: _25  and  _27
REMARK   14  A    between atoms: _27  and  _28
REMARK   15  A    between atoms: _27  and  _30
REMARK   16  A    between atoms: _30  and  _31
REMARK   17  A    between atoms: _41  and  _43
REMARK   18  A    between atoms: _43  and  _44
REMARK   19  A    between atoms: _43  and  _46
REMARK   20  A    between atoms: _46  and  _47
REMARK   21  A    between atoms: _57  and  _59
REMARK   22  A    between atoms: _59  and  _60
REMARK   23  A    between atoms: _59  and  _62
REMARK   24  A    between atoms: _62  and  _63
REMARK   25  A    between atoms: _69  and  _71
REMARK   26  A    between atoms: _71  and  _72
REMARK   27  A    between atoms: _71  and  _74
REMARK   28  A    between atoms: _74  and  _75
REMARK   29  A    between atoms: _75  and  _76
REMARK   30  A    between atoms: _81  and  _83
REMARK   31  A    between atoms: _83  and  _84
REMARK   32  A    between atoms: _83  and  _86
REMARK   33  A    between atoms: _86  and  _87
REMARK   34  A    between atoms: _92  and  _94
REMARK   35  A    between atoms: _94  and  _95
REMARK   36  A    between atoms: _94  and  _97
REMARK   37  A    between atoms: _97  and  _98
REMARK   38  A    between atoms: _98  and  _99
REMARK   39  A    between atoms: _101  and  _103
REMARK   40  A    between atoms: _103  and  _104
REMARK   41  A    between atoms: _103  and  _106
REMARK   42  A    between atoms: _106  and  _107
REMARK   43  A    between atoms: _110  and  _112
REMARK   44  A    between atoms: _112  and  _113
REMARK   45  A    between atoms: _112  and  _115
REMARK   46  A    between atoms: _115  and  _116
REMARK   47  A    between atoms: _116  and  _117
REMARK   48  A    between atoms: _122  and  _124
REMARK   49  A    between atoms: _124  and  _125
REMARK   50  A    between atoms: _124  and  _127
REMARK   51  A    between atoms: _127  and  _128
REMARK   52  A    between atoms: _128  and  _129
REMARK   53  A    between atoms: _129  and  _130
REMARK   54  A    between atoms: _139  and  _141
REMARK   55  A    between atoms: _141  and  _142
REMARK   56  A    between atoms: _141  and  _144
REMARK   57  A    between atoms: _146  and  _148
REMARK   58  A    between atoms: _148  and  _149
REMARK   59  A    between atoms: _148  and  _151
REMARK   60  A    between atoms: _151  and  _152
REMARK   61  A    between atoms: _152  and  _153
REMARK   62  A    between atoms: _153  and  _154
REMARK   63  A    between atoms: _154  and  _155
REMARK   64  A    between atoms: _159  and  _161
REMARK   65  A    between atoms: _161  and  _162
REMARK   66  A    between atoms: _161  and  _164
REMARK   67  A    between atoms: _164  and  _165
REMARK   68  A    between atoms: _170  and  _172
REMARK   69  A    between atoms: _172  and  _173
REMARK   70  A    between atoms: _172  and  _175
REMARK   71  A    between atoms: _175  and  _176
REMARK   72  A    between atoms: _176  and  _177
REMARK   73  A    between atoms: _182  and  _184
REMARK   74  A    between atoms: _184  and  _185
REMARK   75  A    between atoms: _184  and  _187
REMARK   76  A    between atoms: _187  and  _188
REMARK   77  A    between atoms: _193  and  _195
REMARK   78  A    between atoms: _195  and  _196
REMARK   79  A    between atoms: _195  and  _198
REMARK   80  A    between atoms: _198  and  _199
REMARK   81  A    between atoms: _202  and  _204
REMARK   82  A    between atoms: _204  and  _205
REMARK   83  A    between atoms: _204  and  _207
REMARK   84  A    between atoms: _207  and  _208
REMARK   85  A    between atoms: _210  and  _212
REMARK   86  A    between atoms: _212  and  _213
REMARK   87  A    between atoms: _212  and  _215
REMARK   88  A    between atoms: _215  and  _216
REMARK   89  A    between atoms: _221  and  _223
REMARK   90  A    between atoms: _223  and  _224
REMARK   91  A    between atoms: _223  and  _226
REMARK   92  A    between atoms: _228  and  _230
REMARK   93  A    between atoms: _230  and  _231
REMARK   94  A    between atoms: _230  and  _233
REMARK   95  A    between atoms: _233  and  _234
REMARK   96  A    between atoms: _239  and  _241
REMARK   97  A    between atoms: _241  and  _242
REMARK   98  A    between atoms: _241  and  _244
REMARK   99  A    between atoms: _244  and  _245
REMARK  100  A    between atoms: _248  and  _250
REMARK  101  A    between atoms: _250  and  _251
REMARK  102  A    between atoms: _250  and  _253
REMARK  103  A    between atoms: _253  and  _254
REMARK  104  A    between atoms: _259  and  _260
REMARK  105  A    between atoms: _262  and  _264
REMARK  106  A    between atoms: _264  and  _265
REMARK  107  A    between atoms: _264  and  _267
REMARK  108  A    between atoms: _267  and  _268
REMARK  109  A    between atoms: _268  and  _269
REMARK  110  A    between atoms: _271  and  _273
REMARK  111  A    between atoms: _273  and  _274
REMARK  112  A    between atoms: _273  and  _276
REMARK  113  A    between atoms: _276  and  _277
REMARK  114  A    between atoms: _280  and  _282
REMARK  115  A    between atoms: _282  and  _283
REMARK  116  A    between atoms: _282  and  _285
REMARK  117  A    between atoms: _288  and  _290
REMARK  118  A    between atoms: _290  and  _291
REMARK  119  A    between atoms: _294  and  _296
REMARK  120  A    between atoms: _296  and  _297
REMARK  121  A    between atoms: _296  and  _299
REMARK  122  A    between atoms: _302  and  _304
REMARK  123  A    between atoms: _304  and  _305
REMARK  124  A    between atoms: _304  and  _307
REMARK  125  A    between atoms: _307  and  _308
REMARK  126  A    between atoms: _313  and  _315
REMARK  127  A    between atoms: _315  and  _316
REMARK  128  A    between atoms: _315  and  _318
REMARK  129  A    between atoms: _318  and  _319
REMARK  130  A    between atoms: _322  and  _324
REMARK  131  A    between atoms: _324  and  _325
REMARK  132  A    between atoms: _324  and  _327
REMARK  133  A    between atoms: _327  and  _328
REMARK  134  A    between atoms: _331  and  _333
REMARK  135  A    between atoms: _333  and  _334
REMARK  136  A    between atoms: _333  and  _336
REMARK  137  A    between atoms: _336  and  _337
REMARK  138  A    between atoms: _337  and  _338
REMARK  139  A    between atoms: _338  and  _339
REMARK  140  A    between atoms: _348  and  _350
REMARK  141  A    between atoms: _350  and  _351
REMARK  142  A    between atoms: _350  and  _353
REMARK  143  A    between atoms: _353  and  _354
REMARK                            x       y       z     vdW  Elec       q    Type
REMARK                         _______ _______ _______ _____ _____    ______ ____
ROOT
ATOM      1  O   HOH     1      21.644  16.098  -2.324  0.00  0.00    +0.000 OA
ENDROOT
TORSDOF 0
REMARK  Name = ../refined-set-2016/1hi5/1hi5_pocket.pdb
REMARK  143 active torsions:
REMARK  status: ('A' for Active; 'I' for Inactive)
REMARK    1  A    between atoms: _1  and  _5
REMARK    2  A    between atoms: _5  and  _6
REMARK    3  A    between atoms: _5  and  _8
REMARK    4  A    between atoms: _8  and  _9
REMARK    5  A    between atoms: _9  and  _10
REMARK    6  A    between atoms: _12  and  _14
REMARK    7  A    between atoms: _14  and  _15
REMARK    8  A    between atoms: _14  and  _17
REMARK    9  A    between atoms: _17  and  _18
REMARK   10  A    between atoms: _18  and  _19
REMARK   11  A    between atoms: _19  and  _20
REMARK   12  A    between atoms: _20  and  _21
REMARK   13  A    between atoms: _25  and  _27
REMARK   14  A    between atoms: _27  and  _28
REMARK   15  A    between atoms: _27  and  _30
REMARK   16  A    between atoms: _30  and  _31
REMARK   17  A    between atoms: _41  and  _43
REMARK   18  A    between atoms: _43  and  _44
REMARK   19  A    between atoms: _43  and  _46
REMARK   20  A    between atoms: _46  and  _47
REMARK   21  A    between atoms: _57  and  _59
REMARK   22  A    between atoms: _59  and  _60
REMARK   23  A    between atoms: _59  and  _62
REMARK   24  A    between atoms: _62  and  _63
REMARK   25  A    between atoms: _69  and  _71
REMARK   26  A    between atoms: _71  and  _72
REMARK   27  A    between atoms: _71  and  _74
REMARK   28  A    between atoms: _74  and  _75
REMARK   29  A    between atoms: _75  and  _76
REMARK   30  A    between atoms: _81  and  _83
REMARK   31  A    between atoms: _83  and  _84
REMARK   32  A    between atoms: _83  and  _86
REMARK   33  A    between atoms: _86  and  _87
REMARK   34  A    between atoms: _92  and  _94
REMARK   35  A    between atoms: _94  and  _95
REMARK   36  A    between atoms: _94  and  _97
REMARK   37  A    between atoms: _97  and  _98
REMARK   38  A    between atoms: _98  and  _99
REMARK   39  A    between atoms: _101  and  _103
REMARK   40  A    between atoms: _103  and  _104
REMARK   41  A    between atoms: _103  and  _106
REMARK   42  A    between atoms: _106  and  _107
REMARK   43  A    between atoms: _110  and  _112
REMARK   44  A    between atoms: _112  and  _113
REMARK   45  A    between atoms: _112  and  _115
REMARK   46  A    between atoms: _115  and  _116
REMARK   47  A    between atoms: _116  and  _117
REMARK   48  A    between atoms: _122  and  _124
REMARK   49  A    between atoms: _124  and  _125
REMARK   50  A    between atoms: _124  and  _127
REMARK   51  A    between atoms: _127  and  _128
REMARK   52  A    between atoms: _128  and  _129
REMARK   53  A    between atoms: _129  and  _130
REMARK   54  A    between atoms: _139  and  _141
REMARK   55  A    between atoms: _141  and  _142
REMARK   56  A    between atoms: _141  and  _144
REMARK   57  A    between atoms: _146  and  _148
REMARK   58  A    between atoms: _148  and  _149
REMARK   59  A    between atoms: _148  and  _151
REMARK   60  A    between atoms: _151  and  _152
REMARK   61  A    between atoms: _152  and  _153
REMARK   62  A    between atoms: _153  and  _154
REMARK   63  A    between atoms: _154  and  _155
REMARK   64  A    between atoms: _159  and  _161
REMARK   65  A    between atoms: _161  and  _162
REMARK   66  A    between atoms: _161  and  _164
REMARK   67  A    between atoms: _164  and  _165
REMARK   68  A    between atoms: _170  and  _172
REMARK   69  A    between atoms: _172  and  _173
REMARK   70  A    between atoms: _172  and  _175
REMARK   71  A    between atoms: _175  and  _176
REMARK   72  A    between atoms: _176  and  _177
REMARK   73  A    between atoms: _182  and  _184
REMARK   74  A    between atoms: _184  and  _185
REMARK   75  A    between atoms: _184  and  _187
REMARK   76  A    between atoms: _187  and  _188
REMARK   77  A    between atoms: _193  and  _195
REMARK   78  A    between atoms: _195  and  _196
REMARK   79  A    between atoms: _195  and  _198
REMARK   80  A    between atoms: _198  and  _199
REMARK   81  A    between atoms: _202  and  _204
REMARK   82  A    between atoms: _204  and  _205
REMARK   83  A    between atoms: _204  and  _207
REMARK   84  A    between atoms: _207  and  _208
REMARK   85  A    between atoms: _210  and  _212
REMARK   86  A    between atoms: _212  and  _213
REMARK   87  A    between atoms: _212  and  _215
REMARK   88  A    between atoms: _215  and  _216
REMARK   89  A    between atoms: _221  and  _223
REMARK   90  A    between atoms: _223  and  _224
REMARK   91  A    between atoms: _223  and  _226
REMARK   92  A    between atoms: _228  and  _230
REMARK   93  A    between atoms: _230  and  _231
REMARK   94  A    between atoms: _230  and  _233
REMARK   95  A    between atoms: _233  and  _234
REMARK   96  A    between atoms: _239  and  _241
REMARK   97  A    between atoms: _241  and  _242
REMARK   98  A    between atoms: _241  and  _244
REMARK   99  A    between atoms: _244  and  _245
REMARK  100  A    between atoms: _248  and  _250
REMARK  101  A    between atoms: _250  and  _251
REMARK  102  A    between atoms: _250  and  _253
REMARK  103  A    between atoms: _253  and  _254
REMARK  104  A    between atoms: _259  and  _260
REMARK  105  A    between atoms: _262  and  _264
REMARK  106  A    between atoms: _264  and  _265
REMARK  107  A    between atoms: _264  and  _267
REMARK  108  A    between atoms: _267  and  _268
REMARK  109  A    between atoms: _268  and  _269
REMARK  110  A    between atoms: _271  and  _273
REMARK  111  A    between atoms: _273  and  _274
REMARK  112  A    between atoms: _273  and  _276
REMARK  113  A    between atoms: _276  and  _277
REMARK  114  A    between atoms: _280  and  _282
REMARK  115  A    between atoms: _282  and  _283
REMARK  116  A    between atoms: _282  and  _285
REMARK  117  A    between atoms: _288  and  _290
REMARK  118  A    between atoms: _290  and  _291
REMARK  119  A    between atoms: _294  and  _296
REMARK  120  A    between atoms: _296  and  _297
REMARK  121  A    between atoms: _296  and  _299
REMARK  122  A    between atoms: _302  and  _304
REMARK  123  A    between atoms: _304  and  _305
REMARK  124  A    between atoms: _304  and  _307
REMARK  125  A    between atoms: _307  and  _308
REMARK  126  A    between atoms: _313  and  _315
REMARK  127  A    between atoms: _315  and  _316
REMARK  128  A    between atoms: _315  and  _318
REMARK  129  A    between atoms: _318  and  _319
REMARK  130  A    between atoms: _322  and  _324
REMARK  131  A    between atoms: _324  and  _325
REMARK  132  A    between atoms: _324  and  _327
REMARK  133  A    between atoms: _327  and  _328
REMARK  134  A    between atoms: _331  and  _333
REMARK  135  A    between atoms: _333  and  _334
REMARK  136  A    between atoms: _333  and  _336
REMARK  137  A    between atoms: _336  and  _337
REMARK  138  A    between atoms: _337  and  _338
REMARK  139  A    between atoms: _338  and  _339
REMARK  140  A    between atoms: _348  and  _350
REMARK  141  A    between atoms: _350  and  _351
REMARK  142  A    between atoms: _350  and  _353
REMARK  143  A    between atoms: _353  and  _354
REMARK                            x       y       z     vdW  Elec       q    Type
REMARK                         _______ _______ _______ _____ _____    ______ ____
ROOT
ATOM      1  O   HOH     1      18.504  14.288   0.569  0.00  0.00    +0.000 OA
ENDROOT
TORSDOF 0
REMARK  Name = ../refined-set-2016/1hi5/1hi5_pocket.pdb
REMARK  143 active torsions:
REMARK  status: ('A' for Active; 'I' for Inactive)
REMARK    1  A    between atoms: _1  and  _5
REMARK    2  A    between atoms: _5  and  _6
REMARK    3  A    between atoms: _5  and  _8
REMARK    4  A    between atoms: _8  and  _9
REMARK    5  A    between atoms: _9  and  _10
REMARK    6  A    between atoms: _12  and  _14
REMARK    7  A    between atoms: _14  and  _15
REMARK    8  A    between atoms: _14  and  _17
REMARK    9  A    between atoms: _17  and  _18
REMARK   10  A    between atoms: _18  and  _19
REMARK   11  A    between atoms: _19  and  _20
REMARK   12  A    between atoms: _20  and  _21
REMARK   13  A    between atoms: _25  and  _27
REMARK   14  A    between atoms: _27  and  _28
REMARK   15  A    between atoms: _27  and  _30
REMARK   16  A    between atoms: _30  and  _31
REMARK   17  A    between atoms: _41  and  _43
REMARK   18  A    between atoms: _43  and  _44
REMARK   19  A    between atoms: _43  and  _46
REMARK   20  A    between atoms: _46  and  _47
REMARK   21  A    between atoms: _57  and  _59
REMARK   22  A    between atoms: _59  and  _60
REMARK   23  A    between atoms: _59  and  _62
REMARK   24  A    between atoms: _62  and  _63
REMARK   25  A    between atoms: _69  and  _71
REMARK   26  A    between atoms: _71  and  _72
REMARK   27  A    between atoms: _71  and  _74
REMARK   28  A    between atoms: _74  and  _75
REMARK   29  A    between atoms: _75  and  _76
REMARK   30  A    between atoms: _81  and  _83
REMARK   31  A    between atoms: _83  and  _84
REMARK   32  A    between atoms: _83  and  _86
REMARK   33  A    between atoms: _86  and  _87
REMARK   34  A    between atoms: _92  and  _94
REMARK   35  A    between atoms: _94  and  _95
REMARK   36  A    between atoms: _94  and  _97
REMARK   37  A    between atoms: _97  and  _98
REMARK   38  A    between atoms: _98  and  _99
REMARK   39  A    between atoms: _101  and  _103
REMARK   40  A    between atoms: _103  and  _104
REMARK   41  A    between atoms: _103  and  _106
REMARK   42  A    between atoms: _106  and  _107
REMARK   43  A    between atoms: _110  and  _112
REMARK   44  A    between atoms: _112  and  _113
REMARK   45  A    between atoms: _112  and  _115
REMARK   46  A    between atoms: _115  and  _116
REMARK   47  A    between atoms: _116  and  _117
REMARK   48  A    between atoms: _122  and  _124
REMARK   49  A    between atoms: _124  and  _125
REMARK   50  A    between atoms: _124  and  _127
REMARK   51  A    between atoms: _127  and  _128
REMARK   52  A    between atoms: _128  and  _129
REMARK   53  A    between atoms: _129  and  _130
REMARK   54  A    between atoms: _139  and  _141
REMARK   55  A    between atoms: _141  and  _142
REMARK   56  A    between atoms: _141  and  _144
REMARK   57  A    between atoms: _146  and  _148
REMARK   58  A    between atoms: _148  and  _149
REMARK   59  A    between atoms: _148  and  _151
REMARK   60  A    between atoms: _151  and  _152
REMARK   61  A    between atoms: _152  and  _153
REMARK   62  A    between atoms: _153  and  _154
REMARK   63  A    between atoms: _154  and  _155
REMARK   64  A    between atoms: _159  and  _161
REMARK   65  A    between atoms: _161  and  _162
REMARK   66  A    between atoms: _161  and  _164
REMARK   67  A    between atoms: _164  and  _165
REMARK   68  A    between atoms: _170  and  _172
REMARK   69  A    between atoms: _172  and  _173
REMARK   70  A    between atoms: _172  and  _175
REMARK   71  A    between atoms: _175  and  _176
REMARK   72  A    between atoms: _176  and  _177
REMARK   73  A    between atoms: _182  and  _184
REMARK   74  A    between atoms: _184  and  _185
REMARK   75  A    between atoms: _184  and  _187
REMARK   76  A    between atoms: _187  and  _188
REMARK   77  A    between atoms: _193  and  _195
REMARK   78  A    between atoms: _195  and  _196
REMARK   79  A    between atoms: _195  and  _198
REMARK   80  A    between atoms: _198  and  _199
REMARK   81  A    between atoms: _202  and  _204
REMARK   82  A    between atoms: _204  and  _205
REMARK   83  A    between atoms: _204  and  _207
REMARK   84  A    between atoms: _207  and  _208
REMARK   85  A    between atoms: _210  and  _212
REMARK   86  A    between atoms: _212  and  _213
REMARK   87  A    between atoms: _212  and  _215
REMARK   88  A    between atoms: _215  and  _216
REMARK   89  A    between atoms: _221  and  _223
REMARK   90  A    between atoms: _223  and  _224
REMARK   91  A    between atoms: _223  and  _226
REMARK   92  A    between atoms: _228  and  _230
REMARK   93  A    between atoms: _230  and  _231
REMARK   94  A    between atoms: _230  and  _233
REMARK   95  A    between atoms: _233  and  _234
REMARK   96  A    between atoms: _239  and  _241
REMARK   97  A    between atoms: _241  and  _242
REMARK   98  A    between atoms: _241  and  _244
REMARK   99  A    between atoms: _244  and  _245
REMARK  100  A    between atoms: _248  and  _250
REMARK  101  A    between atoms: _250  and  _251
REMARK  102  A    between atoms: _250  and  _253
REMARK  103  A    between atoms: _253  and  _254
REMARK  104  A    between atoms: _259  and  _260
REMARK  105  A    between atoms: _262  and  _264
REMARK  106  A    between atoms: _264  and  _265
REMARK  107  A    between atoms: _264  and  _267
REMARK  108  A    between atoms: _267  and  _268
REMARK  109  A    between atoms: _268  and  _269
REMARK  110  A    between atoms: _271  and  _273
REMARK  111  A    between atoms: _273  and  _274
REMARK  112  A    between atoms: _273  and  _276
REMARK  113  A    between atoms: _276  and  _277
REMARK  114  A    between atoms: _280  and  _282
REMARK  115  A    between atoms: _282  and  _283
REMARK  116  A    between atoms: _282  and  _285
REMARK  117  A    between atoms: _288  and  _290
REMARK  118  A    between atoms: _290  and  _291
REMARK  119  A    between atoms: _294  and  _296
REMARK  120  A    between atoms: _296  and  _297
REMARK  121  A    between atoms: _296  and  _299
REMARK  122  A    between atoms: _302  and  _304
REMARK  123  A    between atoms: _304  and  _305
REMARK  124  A    between atoms: _304  and  _307
REMARK  125  A    between atoms: _307  and  _308
REMARK  126  A    between atoms: _313  and  _315
REMARK  127  A    between atoms: _315  and  _316
REMARK  128  A    between atoms: _315  and  _318
REMARK  129  A    between atoms: _318  and  _319
REMARK  130  A    between atoms: _322  and  _324
REMARK  131  A    between atoms: _324  and  _325
REMARK  132  A    between atoms: _324  and  _327
REMARK  133  A    between atoms: _327  and  _328
REMARK  134  A    between atoms: _331  and  _333
REMARK  135  A    between atoms: _333  and  _334
REMARK  136  A    between atoms: _333  and  _336
REMARK  137  A    between atoms: _336  and  _337
REMARK  138  A    between atoms: _337  and  _338
REMARK  139  A    between atoms: _338  and  _339
REMARK  140  A    between atoms: _348  and  _350
REMARK  141  A    between atoms: _350  and  _351
REMARK  142  A    between atoms: _350  and  _353
REMARK  143  A    between atoms: _353  and  _354
REMARK                            x       y       z     vdW  Elec       q    Type
REMARK                         _______ _______ _______ _____ _____    ______ ____
ROOT
ATOM      1  O   HOH     1      20.267  11.457  -3.634  0.00  0.00    +0.000 OA
ENDROOT
TORSDOF 0
REMARK  Name = ../refined-set-2016/1hi5/1hi5_pocket.pdb
REMARK  143 active torsions:
REMARK  status: ('A' for Active; 'I' for Inactive)
REMARK    1  A    between atoms: _1  and  _5
REMARK    2  A    between atoms: _5  and  _6
REMARK    3  A    between atoms: _5  and  _8
REMARK    4  A    between atoms: _8  and  _9
REMARK    5  A    between atoms: _9  and  _10
REMARK    6  A    between atoms: _12  and  _14
REMARK    7  A    between atoms: _14  and  _15
REMARK    8  A    between atoms: _14  and  _17
REMARK    9  A    between atoms: _17  and  _18
REMARK   10  A    between atoms: _18  and  _19
REMARK   11  A    between atoms: _19  and  _20
REMARK   12  A    between atoms: _20  and  _21
REMARK   13  A    between atoms: _25  and  _27
REMARK   14  A    between atoms: _27  and  _28
REMARK   15  A    between atoms: _27  and  _30
REMARK   16  A    between atoms: _30  and  _31
REMARK   17  A    between atoms: _41  and  _43
REMARK   18  A    between atoms: _43  and  _44
REMARK   19  A    between atoms: _43  and  _46
REMARK   20  A    between atoms: _46  and  _47
REMARK   21  A    between atoms: _57  and  _59
REMARK   22  A    between atoms: _59  and  _60
REMARK   23  A    between atoms: _59  and  _62
REMARK   24  A    between atoms: _62  and  _63
REMARK   25  A    between atoms: _69  and  _71
REMARK   26  A    between atoms: _71  and  _72
REMARK   27  A    between atoms: _71  and  _74
REMARK   28  A    between atoms: _74  and  _75
REMARK   29  A    between atoms: _75  and  _76
REMARK   30  A    between atoms: _81  and  _83
REMARK   31  A    between atoms: _83  and  _84
REMARK   32  A    between atoms: _83  and  _86
REMARK   33  A    between atoms: _86  and  _87
REMARK   34  A    between atoms: _92  and  _94
REMARK   35  A    between atoms: _94  and  _95
REMARK   36  A    between atoms: _94  and  _97
REMARK   37  A    between atoms: _97  and  _98
REMARK   38  A    between atoms: _98  and  _99
REMARK   39  A    between atoms: _101  and  _103
REMARK   40  A    between atoms: _103  and  _104
REMARK   41  A    between atoms: _103  and  _106
REMARK   42  A    between atoms: _106  and  _107
REMARK   43  A    between atoms: _110  and  _112
REMARK   44  A    between atoms: _112  and  _113
REMARK   45  A    between atoms: _112  and  _115
REMARK   46  A    between atoms: _115  and  _116
REMARK   47  A    between atoms: _116  and  _117
REMARK   48  A    between atoms: _122  and  _124
REMARK   49  A    between atoms: _124  and  _125
REMARK   50  A    between atoms: _124  and  _127
REMARK   51  A    between atoms: _127  and  _128
REMARK   52  A    between atoms: _128  and  _129
REMARK   53  A    between atoms: _129  and  _130
REMARK   54  A    between atoms: _139  and  _141
REMARK   55  A    between atoms: _141  and  _142
REMARK   56  A    between atoms: _141  and  _144
REMARK   57  A    between atoms: _146  and  _148
REMARK   58  A    between atoms: _148  and  _149
REMARK   59  A    between atoms: _148  and  _151
REMARK   60  A    between atoms: _151  and  _152
REMARK   61  A    between atoms: _152  and  _153
REMARK   62  A    between atoms: _153  and  _154
REMARK   63  A    between atoms: _154  and  _155
REMARK   64  A    between atoms: _159  and  _161
REMARK   65  A    between atoms: _161  and  _162
REMARK   66  A    between atoms: _161  and  _164
REMARK   67  A    between atoms: _164  and  _165
REMARK   68  A    between atoms: _170  and  _172
REMARK   69  A    between atoms: _172  and  _173
REMARK   70  A    between atoms: _172  and  _175
REMARK   71  A    between atoms: _175  and  _176
REMARK   72  A    between atoms: _176  and  _177
REMARK   73  A    between atoms: _182  and  _184
REMARK   74  A    between atoms: _184  and  _185
REMARK   75  A    between atoms: _184  and  _187
REMARK   76  A    between atoms: _187  and  _188
REMARK   77  A    between atoms: _193  and  _195
REMARK   78  A    between atoms: _195  and  _196
REMARK   79  A    between atoms: _195  and  _198
REMARK   80  A    between atoms: _198  and  _199
REMARK   81  A    between atoms: _202  and  _204
REMARK   82  A    between atoms: _204  and  _205
REMARK   83  A    between atoms: _204  and  _207
REMARK   84  A    between atoms: _207  and  _208
REMARK   85  A    between atoms: _210  and  _212
REMARK   86  A    between atoms: _212  and  _213
REMARK   87  A    between atoms: _212  and  _215
REMARK   88  A    between atoms: _215  and  _216
REMARK   89  A    between atoms: _221  and  _223
REMARK   90  A    between atoms: _223  and  _224
REMARK   91  A    between atoms: _223  and  _226
REMARK   92  A    between atoms: _228  and  _230
REMARK   93  A    between atoms: _230  and  _231
REMARK   94  A    between atoms: _230  and  _233
REMARK   95  A    between atoms: _233  and  _234
REMARK   96  A    between atoms: _239  and  _241
REMARK   97  A    between atoms: _241  and  _242
REMARK   98  A    between atoms: _241  and  _244
REMARK   99  A    between atoms: _244  and  _245
REMARK  100  A    between atoms: _248  and  _250
REMARK  101  A    between atoms: _250  and  _251
REMARK  102  A    between atoms: _250  and  _253
REMARK  103  A    between atoms: _253  and  _254
REMARK  104  A    between atoms: _259  and  _260
REMARK  105  A    between atoms: _262  and  _264
REMARK  106  A    between atoms: _264  and  _265
REMARK  107  A    between atoms: _264  and  _267
REMARK  108  A    between atoms: _267  and  _268
REMARK  109  A    between atoms: _268  and  _269
REMARK  110  A    between atoms: _271  and  _273
REMARK  111  A    between atoms: _273  and  _274
REMARK  112  A    between atoms: _273  and  _276
REMARK  113  A    between atoms: _276  and  _277
REMARK  114  A    between atoms: _280  and  _282
REMARK  115  A    between atoms: _282  and  _283
REMARK  116  A    between atoms: _282  and  _285
REMARK  117  A    between atoms: _288  and  _290
REMARK  118  A    between atoms: _290  and  _291
REMARK  119  A    between atoms: _294  and  _296
REMARK  120  A    between atoms: _296  and  _297
REMARK  121  A    between atoms: _296  and  _299
REMARK  122  A    between atoms: _302  and  _304
REMARK  123  A    between atoms: _304  and  _305
REMARK  124  A    between atoms: _304  and  _307
REMARK  125  A    between atoms: _307  and  _308
REMARK  126  A    between atoms: _313  and  _315
REMARK  127  A    between atoms: _315  and  _316
REMARK  128  A    between atoms: _315  and  _318
REMARK  129  A    between atoms: _318  and  _319
REMARK  130  A    between atoms: _322  and  _324
REMARK  131  A    between atoms: _324  and  _325
REMARK  132  A    between atoms: _324  and  _327
REMARK  133  A    between atoms: _327  and  _328
REMARK  134  A    between atoms: _331  and  _333
REMARK  135  A    between atoms: _333  and  _334
REMARK  136  A    between atoms: _333  and  _336
REMARK  137  A    between atoms: _336  and  _337
REMARK  138  A    between atoms: _337  and  _338
REMARK  139  A    between atoms: _338  and  _339
REMARK  140  A    between atoms: _348  and  _350
REMARK  141  A    between atoms: _350  and  _351
REMARK  142  A    between atoms: _350  and  _353
REMARK  143  A    between atoms: _353  and  _354
REMARK                            x       y       z     vdW  Elec       q    Type
REMARK                         _______ _______ _______ _____ _____    ______ ____
ROOT
ATOM      1  O   HOH     1      15.385  10.598   5.158  0.00  0.00    +0.000 OA
ENDROOT
TORSDOF 0
REMARK  Name = ../refined-set-2016/1hi5/1hi5_pocket.pdb
REMARK  143 active torsions:
REMARK  status: ('A' for Active; 'I' for Inactive)
REMARK    1  A    between atoms: _1  and  _5
REMARK    2  A    between atoms: _5  and  _6
REMARK    3  A    between atoms: _5  and  _8
REMARK    4  A    between atoms: _8  and  _9
REMARK    5  A    between atoms: _9  and  _10
REMARK    6  A    between atoms: _12  and  _14
REMARK    7  A    between atoms: _14  and  _15
REMARK    8  A    between atoms: _14  and  _17
REMARK    9  A    between atoms: _17  and  _18
REMARK   10  A    between atoms: _18  and  _19
REMARK   11  A    between atoms: _19  and  _20
REMARK   12  A    between atoms: _20  and  _21
REMARK   13  A    between atoms: _25  and  _27
REMARK   14  A    between atoms: _27  and  _28
REMARK   15  A    between atoms: _27  and  _30
REMARK   16  A    between atoms: _30  and  _31
REMARK   17  A    between atoms: _41  and  _43
REMARK   18  A    between atoms: _43  and  _44
REMARK   19  A    between atoms: _43  and  _46
REMARK   20  A    between atoms: _46  and  _47
REMARK   21  A    between atoms: _57  and  _59
REMARK   22  A    between atoms: _59  and  _60
REMARK   23  A    between atoms: _59  and  _62
REMARK   24  A    between atoms: _62  and  _63
REMARK   25  A    between atoms: _69  and  _71
REMARK   26  A    between atoms: _71  and  _72
REMARK   27  A    between atoms: _71  and  _74
REMARK   28  A    between atoms: _74  and  _75
REMARK   29  A    between atoms: _75  and  _76
REMARK   30  A    between atoms: _81  and  _83
REMARK   31  A    between atoms: _83  and  _84
REMARK   32  A    between atoms: _83  and  _86
REMARK   33  A    between atoms: _86  and  _87
REMARK   34  A    between atoms: _92  and  _94
REMARK   35  A    between atoms: _94  and  _95
REMARK   36  A    between atoms: _94  and  _97
REMARK   37  A    between atoms: _97  and  _98
REMARK   38  A    between atoms: _98  and  _99
REMARK   39  A    between atoms: _101  and  _103
REMARK   40  A    between atoms: _103  and  _104
REMARK   41  A    between atoms: _103  and  _106
REMARK   42  A    between atoms: _106  and  _107
REMARK   43  A    between atoms: _110  and  _112
REMARK   44  A    between atoms: _112  and  _113
REMARK   45  A    between atoms: _112  and  _115
REMARK   46  A    between atoms: _115  and  _116
REMARK   47  A    between atoms: _116  and  _117
REMARK   48  A    between atoms: _122  and  _124
REMARK   49  A    between atoms: _124  and  _125
REMARK   50  A    between atoms: _124  and  _127
REMARK   51  A    between atoms: _127  and  _128
REMARK   52  A    between atoms: _128  and  _129
REMARK   53  A    between atoms: _129  and  _130
REMARK   54  A    between atoms: _139  and  _141
REMARK   55  A    between atoms: _141  and  _142
REMARK   56  A    between atoms: _141  and  _144
REMARK   57  A    between atoms: _146  and  _148
REMARK   58  A    between atoms: _148  and  _149
REMARK   59  A    between atoms: _148  and  _151
REMARK   60  A    between atoms: _151  and  _152
REMARK   61  A    between atoms: _152  and  _153
REMARK   62  A    between atoms: _153  and  _154
REMARK   63  A    between atoms: _154  and  _155
REMARK   64  A    between atoms: _159  and  _161
REMARK   65  A    between atoms: _161  and  _162
REMARK   66  A    between atoms: _161  and  _164
REMARK   67  A    between atoms: _164  and  _165
REMARK   68  A    between atoms: _170  and  _172
REMARK   69  A    between atoms: _172  and  _173
REMARK   70  A    between atoms: _172  and  _175
REMARK   71  A    between atoms: _175  and  _176
REMARK   72  A    between atoms: _176  and  _177
REMARK   73  A    between atoms: _182  and  _184
REMARK   74  A    between atoms: _184  and  _185
REMARK   75  A    between atoms: _184  and  _187
REMARK   76  A    between atoms: _187  and  _188
REMARK   77  A    between atoms: _193  and  _195
REMARK   78  A    between atoms: _195  and  _196
REMARK   79  A    between atoms: _195  and  _198
REMARK   80  A    between atoms: _198  and  _199
REMARK   81  A    between atoms: _202  and  _204
REMARK   82  A    between atoms: _204  and  _205
REMARK   83  A    between atoms: _204  and  _207
REMARK   84  A    between atoms: _207  and  _208
REMARK   85  A    between atoms: _210  and  _212
REMARK   86  A    between atoms: _212  and  _213
REMARK   87  A    between atoms: _212  and  _215
REMARK   88  A    between atoms: _215  and  _216
REMARK   89  A    between atoms: _221  and  _223
REMARK   90  A    between atoms: _223  and  _224
REMARK   91  A    between atoms: _223  and  _226
REMARK   92  A    between atoms: _228  and  _230
REMARK   93  A    between atoms: _230  and  _231
REMARK   94  A    between atoms: _230  and  _233
REMARK   95  A    between atoms: _233  and  _234
REMARK   96  A    between atoms: _239  and  _241
REMARK   97  A    between atoms: _241  and  _242
REMARK   98  A    between atoms: _241  and  _244
REMARK   99  A    between atoms: _244  and  _245
REMARK  100  A    between atoms: _248  and  _250
REMARK  101  A    between atoms: _250  and  _251
REMARK  102  A    between atoms: _250  and  _253
REMARK  103  A    between atoms: _253  and  _254
REMARK  104  A    between atoms: _259  and  _260
REMARK  105  A    between atoms: _262  and  _264
REMARK  106  A    between atoms: _264  and  _265
REMARK  107  A    between atoms: _264  and  _267
REMARK  108  A    between atoms: _267  and  _268
REMARK  109  A    between atoms: _268  and  _269
REMARK  110  A    between atoms: _271  and  _273
REMARK  111  A    between atoms: _273  and  _274
REMARK  112  A    between atoms: _273  and  _276
REMARK  113  A    between atoms: _276  and  _277
REMARK  114  A    between atoms: _280  and  _282
REMARK  115  A    between atoms: _282  and  _283
REMARK  116  A    between atoms: _282  and  _285
REMARK  117  A    between atoms: _288  and  _290
REMARK  118  A    between atoms: _290  and  _291
REMARK  119  A    between atoms: _294  and  _296
REMARK  120  A    between atoms: _296  and  _297
REMARK  121  A    between atoms: _296  and  _299
REMARK  122  A    between atoms: _302  and  _304
REMARK  123  A    between atoms: _304  and  _305
REMARK  124  A    between atoms: _304  and  _307
REMARK  125  A    between atoms: _307  and  _308
REMARK  126  A    between atoms: _313  and  _315
REMARK  127  A    between atoms: _315  and  _316
REMARK  128  A    between atoms: _315  and  _318
REMARK  129  A    between atoms: _318  and  _319
REMARK  130  A    between atoms: _322  and  _324
REMARK  131  A    between atoms: _324  and  _325
REMARK  132  A    between atoms: _324  and  _327
REMARK  133  A    between atoms: _327  and  _328
REMARK  134  A    between atoms: _331  and  _333
REMARK  135  A    between atoms: _333  and  _334
REMARK  136  A    between atoms: _333  and  _336
REMARK  137  A    between atoms: _336  and  _337
REMARK  138  A    between atoms: _337  and  _338
REMARK  139  A    between atoms: _338  and  _339
REMARK  140  A    between atoms: _348  and  _350
REMARK  141  A    between atoms: _350  and  _351
REMARK  142  A    between atoms: _350  and  _353
REMARK  143  A    between atoms: _353  and  _354
REMARK                            x       y       z     vdW  Elec       q    Type
REMARK                         _______ _______ _______ _____ _____    ______ ____
ROOT
ATOM      1  O   HOH     1      16.717  15.572   0.000  0.00  0.00    +0.000 OA
ENDROOT
TORSDOF 0
REMARK  Name = ../refined-set-2016/1hi5/1hi5_pocket.pdb
REMARK  143 active torsions:
REMARK  status: ('A' for Active; 'I' for Inactive)
REMARK    1  A    between atoms: _1  and  _5
REMARK    2  A    between atoms: _5  and  _6
REMARK    3  A    between atoms: _5  and  _8
REMARK    4  A    between atoms: _8  and  _9
REMARK    5  A    between atoms: _9  and  _10
REMARK    6  A    between atoms: _12  and  _14
REMARK    7  A    between atoms: _14  and  _15
REMARK    8  A    between atoms: _14  and  _17
REMARK    9  A    between atoms: _17  and  _18
REMARK   10  A    between atoms: _18  and  _19
REMARK   11  A    between atoms: _19  and  _20
REMARK   12  A    between atoms: _20  and  _21
REMARK   13  A    between atoms: _25  and  _27
REMARK   14  A    between atoms: _27  and  _28
REMARK   15  A    between atoms: _27  and  _30
REMARK   16  A    between atoms: _30  and  _31
REMARK   17  A    between atoms: _41  and  _43
REMARK   18  A    between atoms: _43  and  _44
REMARK   19  A    between atoms: _43  and  _46
REMARK   20  A    between atoms: _46  and  _47
REMARK   21  A    between atoms: _57  and  _59
REMARK   22  A    between atoms: _59  and  _60
REMARK   23  A    between atoms: _59  and  _62
REMARK   24  A    between atoms: _62  and  _63
REMARK   25  A    between atoms: _69  and  _71
REMARK   26  A    between atoms: _71  and  _72
REMARK   27  A    between atoms: _71  and  _74
REMARK   28  A    between atoms: _74  and  _75
REMARK   29  A    between atoms: _75  and  _76
REMARK   30  A    between atoms: _81  and  _83
REMARK   31  A    between atoms: _83  and  _84
REMARK   32  A    between atoms: _83  and  _86
REMARK   33  A    between atoms: _86  and  _87
REMARK   34  A    between atoms: _92  and  _94
REMARK   35  A    between atoms: _94  and  _95
REMARK   36  A    between atoms: _94  and  _97
REMARK   37  A    between atoms: _97  and  _98
REMARK   38  A    between atoms: _98  and  _99
REMARK   39  A    between atoms: _101  and  _103
REMARK   40  A    between atoms: _103  and  _104
REMARK   41  A    between atoms: _103  and  _106
REMARK   42  A    between atoms: _106  and  _107
REMARK   43  A    between atoms: _110  and  _112
REMARK   44  A    between atoms: _112  and  _113
REMARK   45  A    between atoms: _112  and  _115
REMARK   46  A    between atoms: _115  and  _116
REMARK   47  A    between atoms: _116  and  _117
REMARK   48  A    between atoms: _122  and  _124
REMARK   49  A    between atoms: _124  and  _125
REMARK   50  A    between atoms: _124  and  _127
REMARK   51  A    between atoms: _127  and  _128
REMARK   52  A    between atoms: _128  and  _129
REMARK   53  A    between atoms: _129  and  _130
REMARK   54  A    between atoms: _139  and  _141
REMARK   55  A    between atoms: _141  and  _142
REMARK   56  A    between atoms: _141  and  _144
REMARK   57  A    between atoms: _146  and  _148
REMARK   58  A    between atoms: _148  and  _149
REMARK   59  A    between atoms: _148  and  _151
REMARK   60  A    between atoms: _151  and  _152
REMARK   61  A    between atoms: _152  and  _153
REMARK   62  A    between atoms: _153  and  _154
REMARK   63  A    between atoms: _154  and  _155
REMARK   64  A    between atoms: _159  and  _161
REMARK   65  A    between atoms: _161  and  _162
REMARK   66  A    between atoms: _161  and  _164
REMARK   67  A    between atoms: _164  and  _165
REMARK   68  A    between atoms: _170  and  _172
REMARK   69  A    between atoms: _172  and  _173
REMARK   70  A    between atoms: _172  and  _175
REMARK   71  A    between atoms: _175  and  _176
REMARK   72  A    between atoms: _176  and  _177
REMARK   73  A    between atoms: _182  and  _184
REMARK   74  A    between atoms: _184  and  _185
REMARK   75  A    between atoms: _184  and  _187
REMARK   76  A    between atoms: _187  and  _188
REMARK   77  A    between atoms: _193  and  _195
REMARK   78  A    between atoms: _195  and  _196
REMARK   79  A    between atoms: _195  and  _198
REMARK   80  A    between atoms: _198  and  _199
REMARK   81  A    between atoms: _202  and  _204
REMARK   82  A    between atoms: _204  and  _205
REMARK   83  A    between atoms: _204  and  _207
REMARK   84  A    between atoms: _207  and  _208
REMARK   85  A    between atoms: _210  and  _212
REMARK   86  A    between atoms: _212  and  _213
REMARK   87  A    between atoms: _212  and  _215
REMARK   88  A    between atoms: _215  and  _216
REMARK   89  A    between atoms: _221  and  _223
REMARK   90  A    between atoms: _223  and  _224
REMARK   91  A    between atoms: _223  and  _226
REMARK   92  A    between atoms: _228  and  _230
REMARK   93  A    between atoms: _230  and  _231
REMARK   94  A    between atoms: _230  and  _233
REMARK   95  A    between atoms: _233  and  _234
REMARK   96  A    between atoms: _239  and  _241
REMARK   97  A    between atoms: _241  and  _242
REMARK   98  A    between atoms: _241  and  _244
REMARK   99  A    between atoms: _244  and  _245
REMARK  100  A    between atoms: _248  and  _250
REMARK  101  A    between atoms: _250  and  _251
REMARK  102  A    between atoms: _250  and  _253
REMARK  103  A    between atoms: _253  and  _254
REMARK  104  A    between atoms: _259  and  _260
REMARK  105  A    between atoms: _262  and  _264
REMARK  106  A    between atoms: _264  and  _265
REMARK  107  A    between atoms: _264  and  _267
REMARK  108  A    between atoms: _267  and  _268
REMARK  109  A    between atoms: _268  and  _269
REMARK  110  A    between atoms: _271  and  _273
REMARK  111  A    between atoms: _273  and  _274
REMARK  112  A    between atoms: _273  and  _276
REMARK  113  A    between atoms: _276  and  _277
REMARK  114  A    between atoms: _280  and  _282
REMARK  115  A    between atoms: _282  and  _283
REMARK  116  A    between atoms: _282  and  _285
REMARK  117  A    between atoms: _288  and  _290
REMARK  118  A    between atoms: _290  and  _291
REMARK  119  A    between atoms: _294  and  _296
REMARK  120  A    between atoms: _296  and  _297
REMARK  121  A    between atoms: _296  and  _299
REMARK  122  A    between atoms: _302  and  _304
REMARK  123  A    between atoms: _304  and  _305
REMARK  124  A    between atoms: _304  and  _307
REMARK  125  A    between atoms: _307  and  _308
REMARK  126  A    between atoms: _313  and  _315
REMARK  127  A    between atoms: _315  and  _316
REMARK  128  A    between atoms: _315  and  _318
REMARK  129  A    between atoms: _318  and  _319
REMARK  130  A    between atoms: _322  and  _324
REMARK  131  A    between atoms: _324  and  _325
REMARK  132  A    between atoms: _324  and  _327
REMARK  133  A    between atoms: _327  and  _328
REMARK  134  A    between atoms: _331  and  _333
REMARK  135  A    between atoms: _333  and  _334
REMARK  136  A    between atoms: _333  and  _336
REMARK  137  A    between atoms: _336  and  _337
REMARK  138  A    between atoms: _337  and  _338
REMARK  139  A    between atoms: _338  and  _339
REMARK  140  A    between atoms: _348  and  _350
REMARK  141  A    between atoms: _350  and  _351
REMARK  142  A    between atoms: _350  and  _353
REMARK  143  A    between atoms: _353  and  _354
REMARK                            x       y       z     vdW  Elec       q    Type
REMARK                         _______ _______ _______ _____ _____    ______ ____
ROOT
ATOM      1  O   HOH     1      16.135  17.956   8.253  0.00  0.00    +0.000 OA
ENDROOT
TORSDOF 0
REMARK  Name = ../refined-set-2016/1hi5/1hi5_pocket.pdb
REMARK  143 active torsions:
REMARK  status: ('A' for Active; 'I' for Inactive)
REMARK    1  A    between atoms: _1  and  _5
REMARK    2  A    between atoms: _5  and  _6
REMARK    3  A    between atoms: _5  and  _8
REMARK    4  A    between atoms: _8  and  _9
REMARK    5  A    between atoms: _9  and  _10
REMARK    6  A    between atoms: _12  and  _14
REMARK    7  A    between atoms: _14  and  _15
REMARK    8  A    between atoms: _14  and  _17
REMARK    9  A    between atoms: _17  and  _18
REMARK   10  A    between atoms: _18  and  _19
REMARK   11  A    between atoms: _19  and  _20
REMARK   12  A    between atoms: _20  and  _21
REMARK   13  A    between atoms: _25  and  _27
REMARK   14  A    between atoms: _27  and  _28
REMARK   15  A    between atoms: _27  and  _30
REMARK   16  A    between atoms: _30  and  _31
REMARK   17  A    between atoms: _41  and  _43
REMARK   18  A    between atoms: _43  and  _44
REMARK   19  A    between atoms: _43  and  _46
REMARK   20  A    between atoms: _46  and  _47
REMARK   21  A    between atoms: _57  and  _59
REMARK   22  A    between atoms: _59  and  _60
REMARK   23  A    between atoms: _59  and  _62
REMARK   24  A    between atoms: _62  and  _63
REMARK   25  A    between atoms: _69  and  _71
REMARK   26  A    between atoms: _71  and  _72
REMARK   27  A    between atoms: _71  and  _74
REMARK   28  A    between atoms: _74  and  _75
REMARK   29  A    between atoms: _75  and  _76
REMARK   30  A    between atoms: _81  and  _83
REMARK   31  A    between atoms: _83  and  _84
REMARK   32  A    between atoms: _83  and  _86
REMARK   33  A    between atoms: _86  and  _87
REMARK   34  A    between atoms: _92  and  _94
REMARK   35  A    between atoms: _94  and  _95
REMARK   36  A    between atoms: _94  and  _97
REMARK   37  A    between atoms: _97  and  _98
REMARK   38  A    between atoms: _98  and  _99
REMARK   39  A    between atoms: _101  and  _103
REMARK   40  A    between atoms: _103  and  _104
REMARK   41  A    between atoms: _103  and  _106
REMARK   42  A    between atoms: _106  and  _107
REMARK   43  A    between atoms: _110  and  _112
REMARK   44  A    between atoms: _112  and  _113
REMARK   45  A    between atoms: _112  and  _115
REMARK   46  A    between atoms: _115  and  _116
REMARK   47  A    between atoms: _116  and  _117
REMARK   48  A    between atoms: _122  and  _124
REMARK   49  A    between atoms: _124  and  _125
REMARK   50  A    between atoms: _124  and  _127
REMARK   51  A    between atoms: _127  and  _128
REMARK   52  A    between atoms: _128  and  _129
REMARK   53  A    between atoms: _129  and  _130
REMARK   54  A    between atoms: _139  and  _141
REMARK   55  A    between atoms: _141  and  _142
REMARK   56  A    between atoms: _141  and  _144
REMARK   57  A    between atoms: _146  and  _148
REMARK   58  A    between atoms: _148  and  _149
REMARK   59  A    between atoms: _148  and  _151
REMARK   60  A    between atoms: _151  and  _152
REMARK   61  A    between atoms: _152  and  _153
REMARK   62  A    between atoms: _153  and  _154
REMARK   63  A    between atoms: _154  and  _155
REMARK   64  A    between atoms: _159  and  _161
REMARK   65  A    between atoms: _161  and  _162
REMARK   66  A    between atoms: _161  and  _164
REMARK   67  A    between atoms: _164  and  _165
REMARK   68  A    between atoms: _170  and  _172
REMARK   69  A    between atoms: _172  and  _173
REMARK   70  A    between atoms: _172  and  _175
REMARK   71  A    between atoms: _175  and  _176
REMARK   72  A    between atoms: _176  and  _177
REMARK   73  A    between atoms: _182  and  _184
REMARK   74  A    between atoms: _184  and  _185
REMARK   75  A    between atoms: _184  and  _187
REMARK   76  A    between atoms: _187  and  _188
REMARK   77  A    between atoms: _193  and  _195
REMARK   78  A    between atoms: _195  and  _196
REMARK   79  A    between atoms: _195  and  _198
REMARK   80  A    between atoms: _198  and  _199
REMARK   81  A    between atoms: _202  and  _204
REMARK   82  A    between atoms: _204  and  _205
REMARK   83  A    between atoms: _204  and  _207
REMARK   84  A    between atoms: _207  and  _208
REMARK   85  A    between atoms: _210  and  _212
REMARK   86  A    between atoms: _212  and  _213
REMARK   87  A    between atoms: _212  and  _215
REMARK   88  A    between atoms: _215  and  _216
REMARK   89  A    between atoms: _221  and  _223
REMARK   90  A    between atoms: _223  and  _224
REMARK   91  A    between atoms: _223  and  _226
REMARK   92  A    between atoms: _228  and  _230
REMARK   93  A    between atoms: _230  and  _231
REMARK   94  A    between atoms: _230  and  _233
REMARK   95  A    between atoms: _233  and  _234
REMARK   96  A    between atoms: _239  and  _241
REMARK   97  A    between atoms: _241  and  _242
REMARK   98  A    between atoms: _241  and  _244
REMARK   99  A    between atoms: _244  and  _245
REMARK  100  A    between atoms: _248  and  _250
REMARK  101  A    between atoms: _250  and  _251
REMARK  102  A    between atoms: _250  and  _253
REMARK  103  A    between atoms: _253  and  _254
REMARK  104  A    between atoms: _259  and  _260
REMARK  105  A    between atoms: _262  and  _264
REMARK  106  A    between atoms: _264  and  _265
REMARK  107  A    between atoms: _264  and  _267
REMARK  108  A    between atoms: _267  and  _268
REMARK  109  A    between atoms: _268  and  _269
REMARK  110  A    between atoms: _271  and  _273
REMARK  111  A    between atoms: _273  and  _274
REMARK  112  A    between atoms: _273  and  _276
REMARK  113  A    between atoms: _276  and  _277
REMARK  114  A    between atoms: _280  and  _282
REMARK  115  A    between atoms: _282  and  _283
REMARK  116  A    between atoms: _282  and  _285
REMARK  117  A    between atoms: _288  and  _290
REMARK  118  A    between atoms: _290  and  _291
REMARK  119  A    between atoms: _294  and  _296
REMARK  120  A    between atoms: _296  and  _297
REMARK  121  A    between atoms: _296  and  _299
REMARK  122  A    between atoms: _302  and  _304
REMARK  123  A    between atoms: _304  and  _305
REMARK  124  A    between atoms: _304  and  _307
REMARK  125  A    between atoms: _307  and  _308
REMARK  126  A    between atoms: _313  and  _315
REMARK  127  A    between atoms: _315  and  _316
REMARK  128  A    between atoms: _315  and  _318
REMARK  129  A    between atoms: _318  and  _319
REMARK  130  A    between atoms: _322  and  _324
REMARK  131  A    between atoms: _324  and  _325
REMARK  132  A    between atoms: _324  and  _327
REMARK  133  A    between atoms: _327  and  _328
REMARK  134  A    between atoms: _331  and  _333
REMARK  135  A    between atoms: _333  and  _334
REMARK  136  A    between atoms: _333  and  _336
REMARK  137  A    between atoms: _336  and  _337
REMARK  138  A    between atoms: _337  and  _338
REMARK  139  A    between atoms: _338  and  _339
REMARK  140  A    between atoms: _348  and  _350
REMARK  141  A    between atoms: _350  and  _351
REMARK  142  A    between atoms: _350  and  _353
REMARK  143  A    between atoms: _353  and  _354
REMARK                            x       y       z     vdW  Elec       q    Type
REMARK                         _______ _______ _______ _____ _____    ______ ____
ROOT
ATOM      1  O   HOH     1      17.094  13.312   4.410  0.00  0.00    +0.000 OA
ENDROOT
TORSDOF 0
REMARK  Name = ../refined-set-2016/1hi5/1hi5_pocket.pdb
REMARK  143 active torsions:
REMARK  status: ('A' for Active; 'I' for Inactive)
REMARK    1  A    between atoms: _1  and  _5
REMARK    2  A    between atoms: _5  and  _6
REMARK    3  A    between atoms: _5  and  _8
REMARK    4  A    between atoms: _8  and  _9
REMARK    5  A    between atoms: _9  and  _10
REMARK    6  A    between atoms: _12  and  _14
REMARK    7  A    between atoms: _14  and  _15
REMARK    8  A    between atoms: _14  and  _17
REMARK    9  A    between atoms: _17  and  _18
REMARK   10  A    between atoms: _18  and  _19
REMARK   11  A    between atoms: _19  and  _20
REMARK   12  A    between atoms: _20  and  _21
REMARK   13  A    between atoms: _25  and  _27
REMARK   14  A    between atoms: _27  and  _28
REMARK   15  A    between atoms: _27  and  _30
REMARK   16  A    between atoms: _30  and  _31
REMARK   17  A    between atoms: _41  and  _43
REMARK   18  A    between atoms: _43  and  _44
REMARK   19  A    between atoms: _43  and  _46
REMARK   20  A    between atoms: _46  and  _47
REMARK   21  A    between atoms: _57  and  _59
REMARK   22  A    between atoms: _59  and  _60
REMARK   23  A    between atoms: _59  and  _62
REMARK   24  A    between atoms: _62  and  _63
REMARK   25  A    between atoms: _69  and  _71
REMARK   26  A    between atoms: _71  and  _72
REMARK   27  A    between atoms: _71  and  _74
REMARK   28  A    between atoms: _74  and  _75
REMARK   29  A    between atoms: _75  and  _76
REMARK   30  A    between atoms: _81  and  _83
REMARK   31  A    between atoms: _83  and  _84
REMARK   32  A    between atoms: _83  and  _86
REMARK   33  A    between atoms: _86  and  _87
REMARK   34  A    between atoms: _92  and  _94
REMARK   35  A    between atoms: _94  and  _95
REMARK   36  A    between atoms: _94  and  _97
REMARK   37  A    between atoms: _97  and  _98
REMARK   38  A    between atoms: _98  and  _99
REMARK   39  A    between atoms: _101  and  _103
REMARK   40  A    between atoms: _103  and  _104
REMARK   41  A    between atoms: _103  and  _106
REMARK   42  A    between atoms: _106  and  _107
REMARK   43  A    between atoms: _110  and  _112
REMARK   44  A    between atoms: _112  and  _113
REMARK   45  A    between atoms: _112  and  _115
REMARK   46  A    between atoms: _115  and  _116
REMARK   47  A    between atoms: _116  and  _117
REMARK   48  A    between atoms: _122  and  _124
REMARK   49  A    between atoms: _124  and  _125
REMARK   50  A    between atoms: _124  and  _127
REMARK   51  A    between atoms: _127  and  _128
REMARK   52  A    between atoms: _128  and  _129
REMARK   53  A    between atoms: _129  and  _130
REMARK   54  A    between atoms: _139  and  _141
REMARK   55  A    between atoms: _141  and  _142
REMARK   56  A    between atoms: _141  and  _144
REMARK   57  A    between atoms: _146  and  _148
REMARK   58  A    between atoms: _148  and  _149
REMARK   59  A    between atoms: _148  and  _151
REMARK   60  A    between atoms: _151  and  _152
REMARK   61  A    between atoms: _152  and  _153
REMARK   62  A    between atoms: _153  and  _154
REMARK   63  A    between atoms: _154  and  _155
REMARK   64  A    between atoms: _159  and  _161
REMARK   65  A    between atoms: _161  and  _162
REMARK   66  A    between atoms: _161  and  _164
REMARK   67  A    between atoms: _164  and  _165
REMARK   68  A    between atoms: _170  and  _172
REMARK   69  A    between atoms: _172  and  _173
REMARK   70  A    between atoms: _172  and  _175
REMARK   71  A    between atoms: _175  and  _176
REMARK   72  A    between atoms: _176  and  _177
REMARK   73  A    between atoms: _182  and  _184
REMARK   74  A    between atoms: _184  and  _185
REMARK   75  A    between atoms: _184  and  _187
REMARK   76  A    between atoms: _187  and  _188
REMARK   77  A    between atoms: _193  and  _195
REMARK   78  A    between atoms: _195  and  _196
REMARK   79  A    between atoms: _195  and  _198
REMARK   80  A    between atoms: _198  and  _199
REMARK   81  A    between atoms: _202  and  _204
REMARK   82  A    between atoms: _204  and  _205
REMARK   83  A    between atoms: _204  and  _207
REMARK   84  A    between atoms: _207  and  _208
REMARK   85  A    between atoms: _210  and  _212
REMARK   86  A    between atoms: _212  and  _213
REMARK   87  A    between atoms: _212  and  _215
REMARK   88  A    between atoms: _215  and  _216
REMARK   89  A    between atoms: _221  and  _223
REMARK   90  A    between atoms: _223  and  _224
REMARK   91  A    between atoms: _223  and  _226
REMARK   92  A    between atoms: _228  and  _230
REMARK   93  A    between atoms: _230  and  _231
REMARK   94  A    between atoms: _230  and  _233
REMARK   95  A    between atoms: _233  and  _234
REMARK   96  A    between atoms: _239  and  _241
REMARK   97  A    between atoms: _241  and  _242
REMARK   98  A    between atoms: _241  and  _244
REMARK   99  A    between atoms: _244  and  _245
REMARK  100  A    between atoms: _248  and  _250
REMARK  101  A    between atoms: _250  and  _251
REMARK  102  A    between atoms: _250  and  _253
REMARK  103  A    between atoms: _253  and  _254
REMARK  104  A    between atoms: _259  and  _260
REMARK  105  A    between atoms: _262  and  _264
REMARK  106  A    between atoms: _264  and  _265
REMARK  107  A    between atoms: _264  and  _267
REMARK  108  A    between atoms: _267  and  _268
REMARK  109  A    between atoms: _268  and  _269
REMARK  110  A    between atoms: _271  and  _273
REMARK  111  A    between atoms: _273  and  _274
REMARK  112  A    between atoms: _273  and  _276
REMARK  113  A    between atoms: _276  and  _277
REMARK  114  A    between atoms: _280  and  _282
REMARK  115  A    between atoms: _282  and  _283
REMARK  116  A    between atoms: _282  and  _285
REMARK  117  A    between atoms: _288  and  _290
REMARK  118  A    between atoms: _290  and  _291
REMARK  119  A    between atoms: _294  and  _296
REMARK  120  A    between atoms: _296  and  _297
REMARK  121  A    between atoms: _296  and  _299
REMARK  122  A    between atoms: _302  and  _304
REMARK  123  A    between atoms: _304  and  _305
REMARK  124  A    between atoms: _304  and  _307
REMARK  125  A    between atoms: _307  and  _308
REMARK  126  A    between atoms: _313  and  _315
REMARK  127  A    between atoms: _315  and  _316
REMARK  128  A    between atoms: _315  and  _318
REMARK  129  A    between atoms: _318  and  _319
REMARK  130  A    between atoms: _322  and  _324
REMARK  131  A    between atoms: _324  and  _325
REMARK  132  A    between atoms: _324  and  _327
REMARK  133  A    between atoms: _327  and  _328
REMARK  134  A    between atoms: _331  and  _333
REMARK  135  A    between atoms: _333  and  _334
REMARK  136  A    between atoms: _333  and  _336
REMARK  137  A    between atoms: _336  and  _337
REMARK  138  A    between atoms: _337  and  _338
REMARK  139  A    between atoms: _338  and  _339
REMARK  140  A    between atoms: _348  and  _350
REMARK  141  A    between atoms: _350  and  _351
REMARK  142  A    between atoms: _350  and  _353
REMARK  143  A    between atoms: _353  and  _354
REMARK                            x       y       z     vdW  Elec       q    Type
REMARK                         _______ _______ _______ _____ _____    ______ ____
ROOT
ATOM      1  O   HOH     1      14.462  16.844   0.097  0.00  0.00    +0.000 OA
ENDROOT
TORSDOF 0
