REMARK  Name = ../refined-set-2016/4zb6/4zb6_pocket.pdb
REMARK  231 active torsions:
REMARK  status: ('A' for Active; 'I' for Inactive)
REMARK    1  A    between atoms: _1  and  _3
REMARK    2  A    between atoms: _3  and  _4
REMARK    3  A    between atoms: _3  and  _6
REMARK    4  A    between atoms: _6  and  _7
REMARK    5  A    between atoms: _10  and  _12
REMARK    6  A    between atoms: _12  and  _13
REMARK    7  A    between atoms: _12  and  _15
REMARK    8  A    between atoms: _15  and  _16
REMARK    9  A    between atoms: _21  and  _23
REMARK   10  A    between atoms: _23  and  _24
REMARK   11  A    between atoms: _23  and  _26
REMARK   12  A    between atoms: _26  and  _27
REMARK   13  A    between atoms: _29  and  _31
REMARK   14  A    between atoms: _31  and  _32
REMARK   15  A    between atoms: _35  and  _36
REMARK   16  A    between atoms: _41  and  _43
REMARK   17  A    between atoms: _43  and  _44
REMARK   18  A    between atoms: _43  and  _46
REMARK   19  A    between atoms: _46  and  _47
REMARK   20  A    between atoms: _52  and  _54
REMARK   21  A    between atoms: _54  and  _55
REMARK   22  A    between atoms: _57  and  _59
REMARK   23  A    between atoms: _59  and  _60
REMARK   24  A    between atoms: _59  and  _62
REMARK   25  A    between atoms: _62  and  _63
REMARK   26  A    between atoms: _73  and  _75
REMARK   27  A    between atoms: _75  and  _76
REMARK   28  A    between atoms: _75  and  _78
REMARK   29  A    between atoms: _78  and  _79
REMARK   30  A    between atoms: _79  and  _80
REMARK   31  A    between atoms: _80  and  _81
REMARK   32  A    between atoms: _81  and  _82
REMARK   33  A    between atoms: _86  and  _88
REMARK   34  A    between atoms: _88  and  _89
REMARK   35  A    between atoms: _88  and  _91
REMARK   36  A    between atoms: _94  and  _96
REMARK   37  A    between atoms: _96  and  _97
REMARK   38  A    between atoms: _96  and  _99
REMARK   39  A    between atoms: _99  and  _100
REMARK   40  A    between atoms: _103  and  _105
REMARK   41  A    between atoms: _105  and  _106
REMARK   42  A    between atoms: _105  and  _108
REMARK   43  A    between atoms: _108  and  _109
REMARK   44  A    between atoms: _112  and  _114
REMARK   45  A    between atoms: _114  and  _115
REMARK   46  A    between atoms: _114  and  _117
REMARK   47  A    between atoms: _117  and  _118
REMARK   48  A    between atoms: _118  and  _119
REMARK   49  A    between atoms: _121  and  _123
REMARK   50  A    between atoms: _123  and  _124
REMARK   51  A    between atoms: _126  and  _128
REMARK   52  A    between atoms: _128  and  _129
REMARK   53  A    between atoms: _128  and  _131
REMARK   54  A    between atoms: _131  and  _132
REMARK   55  A    between atoms: _137  and  _139
REMARK   56  A    between atoms: _139  and  _140
REMARK   57  A    between atoms: _139  and  _142
REMARK   58  A    between atoms: _142  and  _143
REMARK   59  A    between atoms: _143  and  _144
REMARK   60  A    between atoms: _144  and  _145
REMARK   61  A    between atoms: _145  and  _146
REMARK   62  A    between atoms: _150  and  _152
REMARK   63  A    between atoms: _152  and  _153
REMARK   64  A    between atoms: _152  and  _155
REMARK   65  A    between atoms: _155  and  _156
REMARK   66  A    between atoms: _161  and  _162
REMARK   67  A    between atoms: _164  and  _166
REMARK   68  A    between atoms: _166  and  _167
REMARK   69  A    between atoms: _166  and  _169
REMARK   70  A    between atoms: _169  and  _170
REMARK   71  A    between atoms: _175  and  _177
REMARK   72  A    between atoms: _177  and  _178
REMARK   73  A    between atoms: _177  and  _180
REMARK   74  A    between atoms: _180  and  _181
REMARK   75  A    between atoms: _186  and  _188
REMARK   76  A    between atoms: _188  and  _189
REMARK   77  A    between atoms: _191  and  _193
REMARK   78  A    between atoms: _193  and  _194
REMARK   79  A    between atoms: _193  and  _196
REMARK   80  A    between atoms: _196  and  _197
REMARK   81  A    between atoms: _197  and  _198
REMARK   82  A    between atoms: _198  and  _199
REMARK   83  A    between atoms: _208  and  _210
REMARK   84  A    between atoms: _210  and  _211
REMARK   85  A    between atoms: _210  and  _213
REMARK   86  A    between atoms: _217  and  _218
REMARK   87  A    between atoms: _223  and  _225
REMARK   88  A    between atoms: _225  and  _226
REMARK   89  A    between atoms: _229  and  _231
REMARK   90  A    between atoms: _231  and  _232
REMARK   91  A    between atoms: _231  and  _234
REMARK   92  A    between atoms: _234  and  _235
REMARK   93  A    between atoms: _245  and  _247
REMARK   94  A    between atoms: _247  and  _248
REMARK   95  A    between atoms: _247  and  _250
REMARK   96  A    between atoms: _250  and  _251
REMARK   97  A    between atoms: _251  and  _252
REMARK   98  A    between atoms: _255  and  _257
REMARK   99  A    between atoms: _257  and  _258
REMARK  100  A    between atoms: _257  and  _260
REMARK  101  A    between atoms: _260  and  _261
REMARK  102  A    between atoms: _263  and  _265
REMARK  103  A    between atoms: _265  and  _266
REMARK  104  A    between atoms: _265  and  _268
REMARK  105  A    between atoms: _268  and  _269
REMARK  106  A    between atoms: _274  and  _276
REMARK  107  A    between atoms: _276  and  _277
REMARK  108  A    between atoms: _280  and  _282
REMARK  109  A    between atoms: _282  and  _283
REMARK  110  A    between atoms: _282  and  _285
REMARK  111  A    between atoms: _288  and  _290
REMARK  112  A    between atoms: _290  and  _291
REMARK  113  A    between atoms: _290  and  _293
REMARK  114  A    between atoms: _293  and  _294
REMARK  115  A    between atoms: _297  and  _299
REMARK  116  A    between atoms: _299  and  _300
REMARK  117  A    between atoms: _299  and  _302
REMARK  118  A    between atoms: _302  and  _303
REMARK  119  A    between atoms: _303  and  _304
REMARK  120  A    between atoms: _309  and  _311
REMARK  121  A    between atoms: _311  and  _312
REMARK  122  A    between atoms: _315  and  _317
REMARK  123  A    between atoms: _317  and  _318
REMARK  124  A    between atoms: _317  and  _320
REMARK  125  A    between atoms: _320  and  _321
REMARK  126  A    between atoms: _323  and  _325
REMARK  127  A    between atoms: _325  and  _326
REMARK  128  A    between atoms: _328  and  _330
REMARK  129  A    between atoms: _330  and  _331
REMARK  130  A    between atoms: _330  and  _333
REMARK  131  A    between atoms: _333  and  _334
REMARK  132  A    between atoms: _334  and  _335
REMARK  133  A    between atoms: _340  and  _342
REMARK  134  A    between atoms: _342  and  _343
REMARK  135  A    between atoms: _346  and  _347
REMARK  136  A    between atoms: _352  and  _354
REMARK  137  A    between atoms: _354  and  _355
REMARK  138  A    between atoms: _354  and  _357
REMARK  139  A    between atoms: _357  and  _358
REMARK  140  A    between atoms: _363  and  _364
REMARK  141  A    between atoms: _366  and  _368
REMARK  142  A    between atoms: _368  and  _369
REMARK  143  A    between atoms: _368  and  _371
REMARK  144  A    between atoms: _371  and  _372
REMARK  145  A    between atoms: _377  and  _378
REMARK  146  A    between atoms: _380  and  _382
REMARK  147  A    between atoms: _382  and  _383
REMARK  148  A    between atoms: _385  and  _387
REMARK  149  A    between atoms: _387  and  _388
REMARK  150  A    between atoms: _387  and  _390
REMARK  151  A    between atoms: _390  and  _391
REMARK  152  A    between atoms: _391  and  _392
REMARK  153  A    between atoms: _397  and  _399
REMARK  154  A    between atoms: _399  and  _400
REMARK  155  A    between atoms: _403  and  _405
REMARK  156  A    between atoms: _405  and  _406
REMARK  157  A    between atoms: _409  and  _411
REMARK  158  A    between atoms: _411  and  _412
REMARK  159  A    between atoms: _411  and  _414
REMARK  160  A    between atoms: _414  and  _415
REMARK  161  A    between atoms: _425  and  _427
REMARK  162  A    between atoms: _427  and  _428
REMARK  163  A    between atoms: _427  and  _430
REMARK  164  A    between atoms: _430  and  _431
REMARK  165  A    between atoms: _437  and  _439
REMARK  166  A    between atoms: _439  and  _440
REMARK  167  A    between atoms: _439  and  _442
REMARK  168  A    between atoms: _442  and  _443
REMARK  169  A    between atoms: _448  and  _449
REMARK  170  A    between atoms: _451  and  _453
REMARK  171  A    between atoms: _453  and  _454
REMARK  172  A    between atoms: _453  and  _456
REMARK  173  A    between atoms: _456  and  _457
REMARK  174  A    between atoms: _460  and  _462
REMARK  175  A    between atoms: _462  and  _463
REMARK  176  A    between atoms: _462  and  _465
REMARK  177  A    between atoms: _465  and  _466
REMARK  178  A    between atoms: _476  and  _478
REMARK  179  A    between atoms: _478  and  _479
REMARK  180  A    between atoms: _478  and  _481
REMARK  181  A    between atoms: _481  and  _482
REMARK  182  A    between atoms: _485  and  _487
REMARK  183  A    between atoms: _487  and  _488
REMARK  184  A    between atoms: _487  and  _490
REMARK  185  A    between atoms: _490  and  _491
REMARK  186  A    between atoms: _496  and  _497
REMARK  187  A    between atoms: _499  and  _501
REMARK  188  A    between atoms: _501  and  _502
REMARK  189  A    between atoms: _501  and  _504
REMARK  190  A    between atoms: _504  and  _505
REMARK  191  A    between atoms: _511  and  _513
REMARK  192  A    between atoms: _513  and  _514
REMARK  193  A    between atoms: _517  and  _519
REMARK  194  A    between atoms: _519  and  _520
REMARK  195  A    between atoms: _519  and  _522
REMARK  196  A    between atoms: _522  and  _523
REMARK  197  A    between atoms: _525  and  _527
REMARK  198  A    between atoms: _527  and  _528
REMARK  199  A    between atoms: _530  and  _532
REMARK  200  A    between atoms: _532  and  _533
REMARK  201  A    between atoms: _532  and  _535
REMARK  202  A    between atoms: _535  and  _536
REMARK  203  A    between atoms: _536  and  _537
REMARK  204  A    between atoms: _543  and  _544
REMARK  205  A    between atoms: _549  and  _551
REMARK  206  A    between atoms: _551  and  _552
REMARK  207  A    between atoms: _551  and  _554
REMARK  208  A    between atoms: _554  and  _555
REMARK  209  A    between atoms: _560  and  _561
REMARK  210  A    between atoms: _563  and  _565
REMARK  211  A    between atoms: _565  and  _566
REMARK  212  A    between atoms: _565  and  _568
REMARK  213  A    between atoms: _568  and  _569
REMARK  214  A    between atoms: _569  and  _570
REMARK  215  A    between atoms: _570  and  _571
REMARK  216  A    between atoms: _580  and  _582
REMARK  217  A    between atoms: _582  and  _583
REMARK  218  A    between atoms: _582  and  _585
REMARK  219  A    between atoms: _585  and  _586
REMARK  220  A    between atoms: _591  and  _592
REMARK  221  A    between atoms: _594  and  _596
REMARK  222  A    between atoms: _596  and  _597
REMARK  223  A    between atoms: _596  and  _599
REMARK  224  A    between atoms: _599  and  _600
REMARK  225  A    between atoms: _600  and  _601
REMARK  226  A    between atoms: _604  and  _606
REMARK  227  A    between atoms: _606  and  _607
REMARK  228  A    between atoms: _606  and  _609
REMARK  229  A    between atoms: _609  and  _610
REMARK  230  A    between atoms: _610  and  _611
REMARK  231  A    between atoms: _611  and  _612
REMARK                            x       y       z     vdW  Elec       q    Type
REMARK                         _______ _______ _______ _____ _____    ______ ____
ROOT
ATOM      1  C   THR A   1      31.333   1.633   1.530  0.00  0.00    +0.241 C 
ATOM      2  O   THR A   1      31.984   0.589   1.609  0.00  0.00    -0.274 OA
ATOM      3  N   HIS A   2      30.087   1.684   1.067  0.00  0.00    -0.298 N 
ATOM      4  H   HIS A   2      29.524   2.545   1.222  0.00  0.00    +0.150 HD
ENDROOT
BRANCH   1   5
ATOM      5  CA  THR A   1      31.932   2.954   2.002  0.00  0.00    +0.172 C 
BRANCH   5   6
ATOM      6  N   THR A   1      33.372   2.854   2.105  0.00  0.00    -0.236 NA
ATOM      7  H   THR A   1      33.881   2.146   1.538  0.00  0.00    +0.142 HD
ENDBRANCH   5   6
BRANCH   5   8
ATOM      8  CB  THR A   1      31.536   4.098   1.044  0.00  0.00    +0.135 C 
ATOM      9  CG2 THR A   1      32.090   3.853  -0.361  0.00  0.00    +0.034 C 
BRANCH   8  10
ATOM     10  OG1 THR A   1      30.111   4.216   0.986  0.00  0.00    -0.383 OA
ATOM     11  HG1 THR A   1      29.760   4.412   1.891  0.00  0.00    +0.210 HD
ENDBRANCH   8  10
ENDBRANCH   5   8
ENDBRANCH   1   5
BRANCH   3  12
ATOM     12  CA  HIS A   2      29.489   0.563   0.347  0.00  0.00    +0.143 C 
BRANCH  12  13
ATOM     13  C   HIS A   2      28.271   1.004  -0.468  0.00  0.00    +0.227 C 
ATOM     14  O   HIS A   2      27.802   2.137  -0.345  0.00  0.00    -0.286 OA
ENDBRANCH  12  13
BRANCH  12  15
ATOM     15  CB  HIS A   2      29.154  -0.603   1.284  0.00  0.00    +0.075 C 
BRANCH  15  16
ATOM     16  CG  HIS A   2      27.964  -0.364   2.156  0.00  0.00    +0.082 A 
ATOM     17  ND1 HIS A   2      27.881   0.699   3.029  0.00  0.00    -0.227 NA
ATOM     18  CE1 HIS A   2      26.728   0.644   3.672  0.00  0.00    +0.199 A 
ATOM     19  NE2 HIS A   2      26.060  -0.412   3.246  0.00  0.00    -0.221 NA
ATOM     20  CD2 HIS A   2      26.813  -1.063   2.300  0.00  0.00    +0.115 A 
ENDBRANCH  15  16
ENDBRANCH  12  15
ENDBRANCH   3  12
TORSDOF 8
REMARK  Name = ../refined-set-2016/4zb6/4zb6_pocket.pdb
REMARK  231 active torsions:
REMARK  status: ('A' for Active; 'I' for Inactive)
REMARK    1  A    between atoms: _1  and  _3
REMARK    2  A    between atoms: _3  and  _4
REMARK    3  A    between atoms: _3  and  _6
REMARK    4  A    between atoms: _6  and  _7
REMARK    5  A    between atoms: _10  and  _12
REMARK    6  A    between atoms: _12  and  _13
REMARK    7  A    between atoms: _12  and  _15
REMARK    8  A    between atoms: _15  and  _16
REMARK    9  A    between atoms: _21  and  _23
REMARK   10  A    between atoms: _23  and  _24
REMARK   11  A    between atoms: _23  and  _26
REMARK   12  A    between atoms: _26  and  _27
REMARK   13  A    between atoms: _29  and  _31
REMARK   14  A    between atoms: _31  and  _32
REMARK   15  A    between atoms: _35  and  _36
REMARK   16  A    between atoms: _41  and  _43
REMARK   17  A    between atoms: _43  and  _44
REMARK   18  A    between atoms: _43  and  _46
REMARK   19  A    between atoms: _46  and  _47
REMARK   20  A    between atoms: _52  and  _54
REMARK   21  A    between atoms: _54  and  _55
REMARK   22  A    between atoms: _57  and  _59
REMARK   23  A    between atoms: _59  and  _60
REMARK   24  A    between atoms: _59  and  _62
REMARK   25  A    between atoms: _62  and  _63
REMARK   26  A    between atoms: _73  and  _75
REMARK   27  A    between atoms: _75  and  _76
REMARK   28  A    between atoms: _75  and  _78
REMARK   29  A    between atoms: _78  and  _79
REMARK   30  A    between atoms: _79  and  _80
REMARK   31  A    between atoms: _80  and  _81
REMARK   32  A    between atoms: _81  and  _82
REMARK   33  A    between atoms: _86  and  _88
REMARK   34  A    between atoms: _88  and  _89
REMARK   35  A    between atoms: _88  and  _91
REMARK   36  A    between atoms: _94  and  _96
REMARK   37  A    between atoms: _96  and  _97
REMARK   38  A    between atoms: _96  and  _99
REMARK   39  A    between atoms: _99  and  _100
REMARK   40  A    between atoms: _103  and  _105
REMARK   41  A    between atoms: _105  and  _106
REMARK   42  A    between atoms: _105  and  _108
REMARK   43  A    between atoms: _108  and  _109
REMARK   44  A    between atoms: _112  and  _114
REMARK   45  A    between atoms: _114  and  _115
REMARK   46  A    between atoms: _114  and  _117
REMARK   47  A    between atoms: _117  and  _118
REMARK   48  A    between atoms: _118  and  _119
REMARK   49  A    between atoms: _121  and  _123
REMARK   50  A    between atoms: _123  and  _124
REMARK   51  A    between atoms: _126  and  _128
REMARK   52  A    between atoms: _128  and  _129
REMARK   53  A    between atoms: _128  and  _131
REMARK   54  A    between atoms: _131  and  _132
REMARK   55  A    between atoms: _137  and  _139
REMARK   56  A    between atoms: _139  and  _140
REMARK   57  A    between atoms: _139  and  _142
REMARK   58  A    between atoms: _142  and  _143
REMARK   59  A    between atoms: _143  and  _144
REMARK   60  A    between atoms: _144  and  _145
REMARK   61  A    between atoms: _145  and  _146
REMARK   62  A    between atoms: _150  and  _152
REMARK   63  A    between atoms: _152  and  _153
REMARK   64  A    between atoms: _152  and  _155
REMARK   65  A    between atoms: _155  and  _156
REMARK   66  A    between atoms: _161  and  _162
REMARK   67  A    between atoms: _164  and  _166
REMARK   68  A    between atoms: _166  and  _167
REMARK   69  A    between atoms: _166  and  _169
REMARK   70  A    between atoms: _169  and  _170
REMARK   71  A    between atoms: _175  and  _177
REMARK   72  A    between atoms: _177  and  _178
REMARK   73  A    between atoms: _177  and  _180
REMARK   74  A    between atoms: _180  and  _181
REMARK   75  A    between atoms: _186  and  _188
REMARK   76  A    between atoms: _188  and  _189
REMARK   77  A    between atoms: _191  and  _193
REMARK   78  A    between atoms: _193  and  _194
REMARK   79  A    between atoms: _193  and  _196
REMARK   80  A    between atoms: _196  and  _197
REMARK   81  A    between atoms: _197  and  _198
REMARK   82  A    between atoms: _198  and  _199
REMARK   83  A    between atoms: _208  and  _210
REMARK   84  A    between atoms: _210  and  _211
REMARK   85  A    between atoms: _210  and  _213
REMARK   86  A    between atoms: _217  and  _218
REMARK   87  A    between atoms: _223  and  _225
REMARK   88  A    between atoms: _225  and  _226
REMARK   89  A    between atoms: _229  and  _231
REMARK   90  A    between atoms: _231  and  _232
REMARK   91  A    between atoms: _231  and  _234
REMARK   92  A    between atoms: _234  and  _235
REMARK   93  A    between atoms: _245  and  _247
REMARK   94  A    between atoms: _247  and  _248
REMARK   95  A    between atoms: _247  and  _250
REMARK   96  A    between atoms: _250  and  _251
REMARK   97  A    between atoms: _251  and  _252
REMARK   98  A    between atoms: _255  and  _257
REMARK   99  A    between atoms: _257  and  _258
REMARK  100  A    between atoms: _257  and  _260
REMARK  101  A    between atoms: _260  and  _261
REMARK  102  A    between atoms: _263  and  _265
REMARK  103  A    between atoms: _265  and  _266
REMARK  104  A    between atoms: _265  and  _268
REMARK  105  A    between atoms: _268  and  _269
REMARK  106  A    between atoms: _274  and  _276
REMARK  107  A    between atoms: _276  and  _277
REMARK  108  A    between atoms: _280  and  _282
REMARK  109  A    between atoms: _282  and  _283
REMARK  110  A    between atoms: _282  and  _285
REMARK  111  A    between atoms: _288  and  _290
REMARK  112  A    between atoms: _290  and  _291
REMARK  113  A    between atoms: _290  and  _293
REMARK  114  A    between atoms: _293  and  _294
REMARK  115  A    between atoms: _297  and  _299
REMARK  116  A    between atoms: _299  and  _300
REMARK  117  A    between atoms: _299  and  _302
REMARK  118  A    between atoms: _302  and  _303
REMARK  119  A    between atoms: _303  and  _304
REMARK  120  A    between atoms: _309  and  _311
REMARK  121  A    between atoms: _311  and  _312
REMARK  122  A    between atoms: _315  and  _317
REMARK  123  A    between atoms: _317  and  _318
REMARK  124  A    between atoms: _317  and  _320
REMARK  125  A    between atoms: _320  and  _321
REMARK  126  A    between atoms: _323  and  _325
REMARK  127  A    between atoms: _325  and  _326
REMARK  128  A    between atoms: _328  and  _330
REMARK  129  A    between atoms: _330  and  _331
REMARK  130  A    between atoms: _330  and  _333
REMARK  131  A    between atoms: _333  and  _334
REMARK  132  A    between atoms: _334  and  _335
REMARK  133  A    between atoms: _340  and  _342
REMARK  134  A    between atoms: _342  and  _343
REMARK  135  A    between atoms: _346  and  _347
REMARK  136  A    between atoms: _352  and  _354
REMARK  137  A    between atoms: _354  and  _355
REMARK  138  A    between atoms: _354  and  _357
REMARK  139  A    between atoms: _357  and  _358
REMARK  140  A    between atoms: _363  and  _364
REMARK  141  A    between atoms: _366  and  _368
REMARK  142  A    between atoms: _368  and  _369
REMARK  143  A    between atoms: _368  and  _371
REMARK  144  A    between atoms: _371  and  _372
REMARK  145  A    between atoms: _377  and  _378
REMARK  146  A    between atoms: _380  and  _382
REMARK  147  A    between atoms: _382  and  _383
REMARK  148  A    between atoms: _385  and  _387
REMARK  149  A    between atoms: _387  and  _388
REMARK  150  A    between atoms: _387  and  _390
REMARK  151  A    between atoms: _390  and  _391
REMARK  152  A    between atoms: _391  and  _392
REMARK  153  A    between atoms: _397  and  _399
REMARK  154  A    between atoms: _399  and  _400
REMARK  155  A    between atoms: _403  and  _405
REMARK  156  A    between atoms: _405  and  _406
REMARK  157  A    between atoms: _409  and  _411
REMARK  158  A    between atoms: _411  and  _412
REMARK  159  A    between atoms: _411  and  _414
REMARK  160  A    between atoms: _414  and  _415
REMARK  161  A    between atoms: _425  and  _427
REMARK  162  A    between atoms: _427  and  _428
REMARK  163  A    between atoms: _427  and  _430
REMARK  164  A    between atoms: _430  and  _431
REMARK  165  A    between atoms: _437  and  _439
REMARK  166  A    between atoms: _439  and  _440
REMARK  167  A    between atoms: _439  and  _442
REMARK  168  A    between atoms: _442  and  _443
REMARK  169  A    between atoms: _448  and  _449
REMARK  170  A    between atoms: _451  and  _453
REMARK  171  A    between atoms: _453  and  _454
REMARK  172  A    between atoms: _453  and  _456
REMARK  173  A    between atoms: _456  and  _457
REMARK  174  A    between atoms: _460  and  _462
REMARK  175  A    between atoms: _462  and  _463
REMARK  176  A    between atoms: _462  and  _465
REMARK  177  A    between atoms: _465  and  _466
REMARK  178  A    between atoms: _476  and  _478
REMARK  179  A    between atoms: _478  and  _479
REMARK  180  A    between atoms: _478  and  _481
REMARK  181  A    between atoms: _481  and  _482
REMARK  182  A    between atoms: _485  and  _487
REMARK  183  A    between atoms: _487  and  _488
REMARK  184  A    between atoms: _487  and  _490
REMARK  185  A    between atoms: _490  and  _491
REMARK  186  A    between atoms: _496  and  _497
REMARK  187  A    between atoms: _499  and  _501
REMARK  188  A    between atoms: _501  and  _502
REMARK  189  A    between atoms: _501  and  _504
REMARK  190  A    between atoms: _504  and  _505
REMARK  191  A    between atoms: _511  and  _513
REMARK  192  A    between atoms: _513  and  _514
REMARK  193  A    between atoms: _517  and  _519
REMARK  194  A    between atoms: _519  and  _520
REMARK  195  A    between atoms: _519  and  _522
REMARK  196  A    between atoms: _522  and  _523
REMARK  197  A    between atoms: _525  and  _527
REMARK  198  A    between atoms: _527  and  _528
REMARK  199  A    between atoms: _530  and  _532
REMARK  200  A    between atoms: _532  and  _533
REMARK  201  A    between atoms: _532  and  _535
REMARK  202  A    between atoms: _535  and  _536
REMARK  203  A    between atoms: _536  and  _537
REMARK  204  A    between atoms: _543  and  _544
REMARK  205  A    between atoms: _549  and  _551
REMARK  206  A    between atoms: _551  and  _552
REMARK  207  A    between atoms: _551  and  _554
REMARK  208  A    between atoms: _554  and  _555
REMARK  209  A    between atoms: _560  and  _561
REMARK  210  A    between atoms: _563  and  _565
REMARK  211  A    between atoms: _565  and  _566
REMARK  212  A    between atoms: _565  and  _568
REMARK  213  A    between atoms: _568  and  _569
REMARK  214  A    between atoms: _569  and  _570
REMARK  215  A    between atoms: _570  and  _571
REMARK  216  A    between atoms: _580  and  _582
REMARK  217  A    between atoms: _582  and  _583
REMARK  218  A    between atoms: _582  and  _585
REMARK  219  A    between atoms: _585  and  _586
REMARK  220  A    between atoms: _591  and  _592
REMARK  221  A    between atoms: _594  and  _596
REMARK  222  A    between atoms: _596  and  _597
REMARK  223  A    between atoms: _596  and  _599
REMARK  224  A    between atoms: _599  and  _600
REMARK  225  A    between atoms: _600  and  _601
REMARK  226  A    between atoms: _604  and  _606
REMARK  227  A    between atoms: _606  and  _607
REMARK  228  A    between atoms: _606  and  _609
REMARK  229  A    between atoms: _609  and  _610
REMARK  230  A    between atoms: _610  and  _611
REMARK  231  A    between atoms: _611  and  _612
REMARK                            x       y       z     vdW  Elec       q    Type
REMARK                         _______ _______ _______ _____ _____    ______ ____
ROOT
ATOM      1  C   GLY A   5      28.264   7.845   1.647  0.00  0.00    +0.243 C 
ATOM      2  O   GLY A   5      29.061   8.724   1.305  0.00  0.00    -0.273 OA
ATOM      3  N   TRP A   6      27.069   7.700   1.088  0.00  0.00    -0.297 N 
ATOM      4  H   TRP A   6      26.442   6.936   1.411  0.00  0.00    +0.150 HD
ENDROOT
BRANCH   3   5
ATOM      5  CA  TRP A   6      26.623   8.596   0.029  0.00  0.00    +0.153 C 
BRANCH   5   6
ATOM      6  C   TRP A   6      26.487  10.017   0.554  0.00  0.00    +0.241 C 
ATOM      7  N   LYS A   7      26.149  10.141   1.831  0.00  0.00    -0.297 N 
ATOM      8  H   LYS A   7      25.937   9.289   2.388  0.00  0.00    +0.150 HD
ATOM      9  O   TRP A   6      26.687  10.978  -0.181  0.00  0.00    -0.273 OA
BRANCH   7  10
ATOM     10  CA  LYS A   7      26.070  11.450   2.466  0.00  0.00    +0.149 C 
BRANCH  10  11
ATOM     11  C   LYS A   7      27.425  12.148   2.420  0.00  0.00    +0.241 C 
ATOM     12  N   VAL A   8      28.483  11.403   2.724  0.00  0.00    -0.298 N 
ATOM     13  H   VAL A   8      28.351  10.408   2.996  0.00  0.00    +0.150 HD
ATOM     14  O   LYS A   7      27.514  13.336   2.105  0.00  0.00    -0.273 OA
BRANCH  12  15
ATOM     15  CA  VAL A   8      29.826  11.967   2.680  0.00  0.00    +0.137 C 
BRANCH  15  16
ATOM     16  CB  VAL A   8      30.860  11.026   3.331  0.00  0.00    +0.026 C 
ATOM     17  CG2 VAL A   8      30.530  10.830   4.808  0.00  0.00    +0.002 C 
ATOM     18  CG1 VAL A   8      32.273  11.578   3.166  0.00  0.00    +0.002 C 
ENDBRANCH  15  16
BRANCH  15  19
ATOM     19  C   VAL A   8      30.209  12.279   1.231  0.00  0.00    +0.227 C 
ATOM     20  O   VAL A   8      30.814  13.314   0.953  0.00  0.00    -0.286 OA
ENDBRANCH  15  19
ENDBRANCH  12  15
ENDBRANCH  10  11
BRANCH  10  21
ATOM     21  CB  LYS A   7      25.585  11.317   3.911  0.00  0.00    +0.029 C 
BRANCH  21  22
ATOM     22  CG  LYS A   7      25.563  12.634   4.684  0.00  0.00    +0.000 C 
BRANCH  22  23
ATOM     23  CD  LYS A   7      24.943  12.437   6.060  0.00  0.00    -0.024 C 
BRANCH  23  24
ATOM     24  CE  LYS A   7      25.750  11.450   6.884  0.00  0.00    -0.086 C 
BRANCH  24  25
ATOM     25  NZ  LYS A   7      25.121  11.200   8.209  0.00  0.00    +0.380 N 
ATOM     26  HZ1 LYS A   7      25.700  10.521   8.744  0.00  0.00    -0.089 HD
ATOM     27  HZ2 LYS A   7      25.058  12.094   8.736  0.00  0.00    -0.089 HD
ATOM     28  HZ3 LYS A   7      24.167  10.810   8.070  0.00  0.00    -0.089 HD
ENDBRANCH  24  25
ENDBRANCH  23  24
ENDBRANCH  22  23
ENDBRANCH  21  22
ENDBRANCH  10  21
ENDBRANCH   7  10
ENDBRANCH   5   6
BRANCH   5  29
ATOM     29  CB  TRP A   6      25.297   8.119  -0.562  0.00  0.00    +0.057 C 
BRANCH  29  30
ATOM     30  CG  TRP A   6      25.428   6.845  -1.332  0.00  0.00    -0.002 A 
ATOM     31  CD1 TRP A   6      24.899   5.632  -1.002  0.00  0.00    +0.068 A 
ATOM     32  NE1 TRP A   6      25.237   4.694  -1.949  0.00  0.00    -0.352 N 
ATOM     33  HE1 TRP A   6      24.954   3.693  -1.937  0.00  0.00    +0.166 HD
ATOM     34  CE2 TRP A   6      26.007   5.293  -2.911  0.00  0.00    +0.056 A 
ATOM     35  CZ2 TRP A   6      26.587   4.756  -4.060  0.00  0.00    +0.017 A 
ATOM     36  CH2 TRP A   6      27.317   5.599  -4.853  0.00  0.00    +0.001 A 
ATOM     37  CZ3 TRP A   6      27.480   6.952  -4.528  0.00  0.00    +0.000 A 
ATOM     38  CE3 TRP A   6      26.902   7.490  -3.382  0.00  0.00    +0.001 A 
ATOM     39  CD2 TRP A   6      26.152   6.648  -2.554  0.00  0.00    +0.013 A 
ENDBRANCH  29  30
ENDBRANCH   5  29
ENDBRANCH   3   5
BRANCH   1  40
ATOM     40  CA  GLY A   5      28.601   6.862   2.754  0.00  0.00    +0.176 C 
BRANCH  40  43
ATOM     41  C   ASN A   4      27.146   7.751   4.488  0.00  0.00    +0.241 C 
ATOM     42  O   ASN A   4      27.723   8.831   4.473  0.00  0.00    -0.273 OA
ATOM     43  N   GLY A   5      27.511   6.737   3.707  0.00  0.00    -0.295 N 
ATOM     44  H   GLY A   5      27.003   5.832   3.781  0.00  0.00    +0.150 HD
BRANCH  41  45
ATOM     45  CA  ASN A   4      25.942   7.531   5.413  0.00  0.00    +0.158 C 
BRANCH  45  47
ATOM     46  C   PRO A   3      24.141   7.013   3.899  0.00  0.00    +0.241 C 
ATOM     47  N   ASN A   4      24.935   6.610   4.881  0.00  0.00    -0.297 N 
ATOM     48  H   ASN A   4      24.844   5.650   5.270  0.00  0.00    +0.150 HD
ATOM     49  O   PRO A   3      24.278   8.110   3.360  0.00  0.00    -0.273 OA
BRANCH  46  55
ATOM     50  C   GLY A   2      24.008   3.902   2.793  0.00  0.00    +0.246 C 
ATOM     51  N   PRO A   3      23.250   4.652   3.602  0.00  0.00    -0.272 N 
ATOM     52  CD  PRO A   3      22.458   4.083   4.709  0.00  0.00    +0.094 C 
ATOM     53  CG  PRO A   3      21.860   5.302   5.371  0.00  0.00    +0.024 C 
ATOM     54  CB  PRO A   3      21.754   6.314   4.295  0.00  0.00    +0.031 C 
ATOM     55  CA  PRO A   3      23.004   6.087   3.438  0.00  0.00    +0.152 C 
ATOM     56  O   GLY A   2      24.676   4.373   1.873  0.00  0.00    -0.273 OA
BRANCH  50  57
ATOM     57  CA  GLY A   2      24.022   2.413   3.082  0.00  0.00    +0.176 C 
BRANCH  57  59
ATOM     58  C   SER A   1      23.343   1.551   0.921  0.00  0.00    +0.241 C 
ATOM     59  N   GLY A   2      24.216   1.567   1.919  0.00  0.00    -0.295 N 
ATOM     60  H   GLY A   2      25.059   0.960   1.867  0.00  0.00    +0.150 HD
ATOM     61  O   SER A   1      22.377   2.313   0.863  0.00  0.00    -0.274 OA
BRANCH  58  62
ATOM     62  CA  SER A   1      23.579   0.516  -0.175  0.00  0.00    +0.174 C 
BRANCH  62  63
ATOM     63  N   SER A   1      24.969   0.364  -0.594  0.00  0.00    -0.236 NA
ATOM     64  H   SER A   1      25.618  -0.210  -0.019  0.00  0.00    +0.142 HD
ENDBRANCH  62  63
BRANCH  62  65
ATOM     65  CB  SER A   1      23.013  -0.839   0.258  0.00  0.00    +0.163 C 
BRANCH  65  66
ATOM     66  OG  SER A   1      21.614  -0.896   0.041  0.00  0.00    -0.380 OA
ATOM     67  H   SER A   1      21.272  -1.780   0.328  0.00  0.00    +0.211 HD
ENDBRANCH  65  66
ENDBRANCH  62  65
ENDBRANCH  58  62
ENDBRANCH  57  59
ENDBRANCH  50  57
ENDBRANCH  46  55
ENDBRANCH  45  47
BRANCH  45  68
ATOM     68  CB  ASN A   4      26.384   7.115   6.821  0.00  0.00    +0.114 C 
BRANCH  68  69
ATOM     69  CG  ASN A   4      25.210   6.772   7.712  0.00  0.00    +0.222 C 
ATOM     70  OD1 ASN A   4      24.440   7.650   8.094  0.00  0.00    -0.275 OA
ATOM     71  ND2 ASN A   4      25.060   5.489   8.040  0.00  0.00    -0.329 N 
ATOM     72 HD21 ASN A   4      24.265   5.196   8.643  0.00  0.00    +0.145 HD
ATOM     73 HD22 ASN A   4      25.738   4.781   7.693  0.00  0.00    +0.145 HD
ENDBRANCH  68  69
ENDBRANCH  45  68
ENDBRANCH  41  45
ENDBRANCH  40  43
ENDBRANCH   1  40
TORSDOF 27
REMARK  Name = ../refined-set-2016/4zb6/4zb6_pocket.pdb
REMARK  231 active torsions:
REMARK  status: ('A' for Active; 'I' for Inactive)
REMARK    1  A    between atoms: _1  and  _3
REMARK    2  A    between atoms: _3  and  _4
REMARK    3  A    between atoms: _3  and  _6
REMARK    4  A    between atoms: _6  and  _7
REMARK    5  A    between atoms: _10  and  _12
REMARK    6  A    between atoms: _12  and  _13
REMARK    7  A    between atoms: _12  and  _15
REMARK    8  A    between atoms: _15  and  _16
REMARK    9  A    between atoms: _21  and  _23
REMARK   10  A    between atoms: _23  and  _24
REMARK   11  A    between atoms: _23  and  _26
REMARK   12  A    between atoms: _26  and  _27
REMARK   13  A    between atoms: _29  and  _31
REMARK   14  A    between atoms: _31  and  _32
REMARK   15  A    between atoms: _35  and  _36
REMARK   16  A    between atoms: _41  and  _43
REMARK   17  A    between atoms: _43  and  _44
REMARK   18  A    between atoms: _43  and  _46
REMARK   19  A    between atoms: _46  and  _47
REMARK   20  A    between atoms: _52  and  _54
REMARK   21  A    between atoms: _54  and  _55
REMARK   22  A    between atoms: _57  and  _59
REMARK   23  A    between atoms: _59  and  _60
REMARK   24  A    between atoms: _59  and  _62
REMARK   25  A    between atoms: _62  and  _63
REMARK   26  A    between atoms: _73  and  _75
REMARK   27  A    between atoms: _75  and  _76
REMARK   28  A    between atoms: _75  and  _78
REMARK   29  A    between atoms: _78  and  _79
REMARK   30  A    between atoms: _79  and  _80
REMARK   31  A    between atoms: _80  and  _81
REMARK   32  A    between atoms: _81  and  _82
REMARK   33  A    between atoms: _86  and  _88
REMARK   34  A    between atoms: _88  and  _89
REMARK   35  A    between atoms: _88  and  _91
REMARK   36  A    between atoms: _94  and  _96
REMARK   37  A    between atoms: _96  and  _97
REMARK   38  A    between atoms: _96  and  _99
REMARK   39  A    between atoms: _99  and  _100
REMARK   40  A    between atoms: _103  and  _105
REMARK   41  A    between atoms: _105  and  _106
REMARK   42  A    between atoms: _105  and  _108
REMARK   43  A    between atoms: _108  and  _109
REMARK   44  A    between atoms: _112  and  _114
REMARK   45  A    between atoms: _114  and  _115
REMARK   46  A    between atoms: _114  and  _117
REMARK   47  A    between atoms: _117  and  _118
REMARK   48  A    between atoms: _118  and  _119
REMARK   49  A    between atoms: _121  and  _123
REMARK   50  A    between atoms: _123  and  _124
REMARK   51  A    between atoms: _126  and  _128
REMARK   52  A    between atoms: _128  and  _129
REMARK   53  A    between atoms: _128  and  _131
REMARK   54  A    between atoms: _131  and  _132
REMARK   55  A    between atoms: _137  and  _139
REMARK   56  A    between atoms: _139  and  _140
REMARK   57  A    between atoms: _139  and  _142
REMARK   58  A    between atoms: _142  and  _143
REMARK   59  A    between atoms: _143  and  _144
REMARK   60  A    between atoms: _144  and  _145
REMARK   61  A    between atoms: _145  and  _146
REMARK   62  A    between atoms: _150  and  _152
REMARK   63  A    between atoms: _152  and  _153
REMARK   64  A    between atoms: _152  and  _155
REMARK   65  A    between atoms: _155  and  _156
REMARK   66  A    between atoms: _161  and  _162
REMARK   67  A    between atoms: _164  and  _166
REMARK   68  A    between atoms: _166  and  _167
REMARK   69  A    between atoms: _166  and  _169
REMARK   70  A    between atoms: _169  and  _170
REMARK   71  A    between atoms: _175  and  _177
REMARK   72  A    between atoms: _177  and  _178
REMARK   73  A    between atoms: _177  and  _180
REMARK   74  A    between atoms: _180  and  _181
REMARK   75  A    between atoms: _186  and  _188
REMARK   76  A    between atoms: _188  and  _189
REMARK   77  A    between atoms: _191  and  _193
REMARK   78  A    between atoms: _193  and  _194
REMARK   79  A    between atoms: _193  and  _196
REMARK   80  A    between atoms: _196  and  _197
REMARK   81  A    between atoms: _197  and  _198
REMARK   82  A    between atoms: _198  and  _199
REMARK   83  A    between atoms: _208  and  _210
REMARK   84  A    between atoms: _210  and  _211
REMARK   85  A    between atoms: _210  and  _213
REMARK   86  A    between atoms: _217  and  _218
REMARK   87  A    between atoms: _223  and  _225
REMARK   88  A    between atoms: _225  and  _226
REMARK   89  A    between atoms: _229  and  _231
REMARK   90  A    between atoms: _231  and  _232
REMARK   91  A    between atoms: _231  and  _234
REMARK   92  A    between atoms: _234  and  _235
REMARK   93  A    between atoms: _245  and  _247
REMARK   94  A    between atoms: _247  and  _248
REMARK   95  A    between atoms: _247  and  _250
REMARK   96  A    between atoms: _250  and  _251
REMARK   97  A    between atoms: _251  and  _252
REMARK   98  A    between atoms: _255  and  _257
REMARK   99  A    between atoms: _257  and  _258
REMARK  100  A    between atoms: _257  and  _260
REMARK  101  A    between atoms: _260  and  _261
REMARK  102  A    between atoms: _263  and  _265
REMARK  103  A    between atoms: _265  and  _266
REMARK  104  A    between atoms: _265  and  _268
REMARK  105  A    between atoms: _268  and  _269
REMARK  106  A    between atoms: _274  and  _276
REMARK  107  A    between atoms: _276  and  _277
REMARK  108  A    between atoms: _280  and  _282
REMARK  109  A    between atoms: _282  and  _283
REMARK  110  A    between atoms: _282  and  _285
REMARK  111  A    between atoms: _288  and  _290
REMARK  112  A    between atoms: _290  and  _291
REMARK  113  A    between atoms: _290  and  _293
REMARK  114  A    between atoms: _293  and  _294
REMARK  115  A    between atoms: _297  and  _299
REMARK  116  A    between atoms: _299  and  _300
REMARK  117  A    between atoms: _299  and  _302
REMARK  118  A    between atoms: _302  and  _303
REMARK  119  A    between atoms: _303  and  _304
REMARK  120  A    between atoms: _309  and  _311
REMARK  121  A    between atoms: _311  and  _312
REMARK  122  A    between atoms: _315  and  _317
REMARK  123  A    between atoms: _317  and  _318
REMARK  124  A    between atoms: _317  and  _320
REMARK  125  A    between atoms: _320  and  _321
REMARK  126  A    between atoms: _323  and  _325
REMARK  127  A    between atoms: _325  and  _326
REMARK  128  A    between atoms: _328  and  _330
REMARK  129  A    between atoms: _330  and  _331
REMARK  130  A    between atoms: _330  and  _333
REMARK  131  A    between atoms: _333  and  _334
REMARK  132  A    between atoms: _334  and  _335
REMARK  133  A    between atoms: _340  and  _342
REMARK  134  A    between atoms: _342  and  _343
REMARK  135  A    between atoms: _346  and  _347
REMARK  136  A    between atoms: _352  and  _354
REMARK  137  A    between atoms: _354  and  _355
REMARK  138  A    between atoms: _354  and  _357
REMARK  139  A    between atoms: _357  and  _358
REMARK  140  A    between atoms: _363  and  _364
REMARK  141  A    between atoms: _366  and  _368
REMARK  142  A    between atoms: _368  and  _369
REMARK  143  A    between atoms: _368  and  _371
REMARK  144  A    between atoms: _371  and  _372
REMARK  145  A    between atoms: _377  and  _378
REMARK  146  A    between atoms: _380  and  _382
REMARK  147  A    between atoms: _382  and  _383
REMARK  148  A    between atoms: _385  and  _387
REMARK  149  A    between atoms: _387  and  _388
REMARK  150  A    between atoms: _387  and  _390
REMARK  151  A    between atoms: _390  and  _391
REMARK  152  A    between atoms: _391  and  _392
REMARK  153  A    between atoms: _397  and  _399
REMARK  154  A    between atoms: _399  and  _400
REMARK  155  A    between atoms: _403  and  _405
REMARK  156  A    between atoms: _405  and  _406
REMARK  157  A    between atoms: _409  and  _411
REMARK  158  A    between atoms: _411  and  _412
REMARK  159  A    between atoms: _411  and  _414
REMARK  160  A    between atoms: _414  and  _415
REMARK  161  A    between atoms: _425  and  _427
REMARK  162  A    between atoms: _427  and  _428
REMARK  163  A    between atoms: _427  and  _430
REMARK  164  A    between atoms: _430  and  _431
REMARK  165  A    between atoms: _437  and  _439
REMARK  166  A    between atoms: _439  and  _440
REMARK  167  A    between atoms: _439  and  _442
REMARK  168  A    between atoms: _442  and  _443
REMARK  169  A    between atoms: _448  and  _449
REMARK  170  A    between atoms: _451  and  _453
REMARK  171  A    between atoms: _453  and  _454
REMARK  172  A    between atoms: _453  and  _456
REMARK  173  A    between atoms: _456  and  _457
REMARK  174  A    between atoms: _460  and  _462
REMARK  175  A    between atoms: _462  and  _463
REMARK  176  A    between atoms: _462  and  _465
REMARK  177  A    between atoms: _465  and  _466
REMARK  178  A    between atoms: _476  and  _478
REMARK  179  A    between atoms: _478  and  _479
REMARK  180  A    between atoms: _478  and  _481
REMARK  181  A    between atoms: _481  and  _482
REMARK  182  A    between atoms: _485  and  _487
REMARK  183  A    between atoms: _487  and  _488
REMARK  184  A    between atoms: _487  and  _490
REMARK  185  A    between atoms: _490  and  _491
REMARK  186  A    between atoms: _496  and  _497
REMARK  187  A    between atoms: _499  and  _501
REMARK  188  A    between atoms: _501  and  _502
REMARK  189  A    between atoms: _501  and  _504
REMARK  190  A    between atoms: _504  and  _505
REMARK  191  A    between atoms: _511  and  _513
REMARK  192  A    between atoms: _513  and  _514
REMARK  193  A    between atoms: _517  and  _519
REMARK  194  A    between atoms: _519  and  _520
REMARK  195  A    between atoms: _519  and  _522
REMARK  196  A    between atoms: _522  and  _523
REMARK  197  A    between atoms: _525  and  _527
REMARK  198  A    between atoms: _527  and  _528
REMARK  199  A    between atoms: _530  and  _532
REMARK  200  A    between atoms: _532  and  _533
REMARK  201  A    between atoms: _532  and  _535
REMARK  202  A    between atoms: _535  and  _536
REMARK  203  A    between atoms: _536  and  _537
REMARK  204  A    between atoms: _543  and  _544
REMARK  205  A    between atoms: _549  and  _551
REMARK  206  A    between atoms: _551  and  _552
REMARK  207  A    between atoms: _551  and  _554
REMARK  208  A    between atoms: _554  and  _555
REMARK  209  A    between atoms: _560  and  _561
REMARK  210  A    between atoms: _563  and  _565
REMARK  211  A    between atoms: _565  and  _566
REMARK  212  A    between atoms: _565  and  _568
REMARK  213  A    between atoms: _568  and  _569
REMARK  214  A    between atoms: _569  and  _570
REMARK  215  A    between atoms: _570  and  _571
REMARK  216  A    between atoms: _580  and  _582
REMARK  217  A    between atoms: _582  and  _583
REMARK  218  A    between atoms: _582  and  _585
REMARK  219  A    between atoms: _585  and  _586
REMARK  220  A    between atoms: _591  and  _592
REMARK  221  A    between atoms: _594  and  _596
REMARK  222  A    between atoms: _596  and  _597
REMARK  223  A    between atoms: _596  and  _599
REMARK  224  A    between atoms: _599  and  _600
REMARK  225  A    between atoms: _600  and  _601
REMARK  226  A    between atoms: _604  and  _606
REMARK  227  A    between atoms: _606  and  _607
REMARK  228  A    between atoms: _606  and  _609
REMARK  229  A    between atoms: _609  and  _610
REMARK  230  A    between atoms: _610  and  _611
REMARK  231  A    between atoms: _611  and  _612
REMARK                            x       y       z     vdW  Elec       q    Type
REMARK                         _______ _______ _______ _____ _____    ______ ____
ROOT
ATOM      1  CA  LEU A   1      33.421  -2.820   1.321  0.00  0.00    +0.133 C 
ENDROOT
BRANCH   1   2
ATOM      2  N   LEU A   1      33.226  -1.602   0.536  0.00  0.00    -0.239 NA
ATOM      3  H   LEU A   1      32.877  -0.746   1.012  0.00  0.00    +0.142 HD
ENDBRANCH   1   2
BRANCH   1   4
ATOM      4  C   LEU A   1      32.198  -3.721   1.243  0.00  0.00    +0.224 C 
ATOM      5  O   LEU A   1      31.067  -3.240   1.140  0.00  0.00    -0.287 OA
ENDBRANCH   1   4
BRANCH   1   6
ATOM      6  CB  LEU A   1      33.694  -2.490   2.789  0.00  0.00    +0.025 C 
BRANCH   6   7
ATOM      7  CG  LEU A   1      34.955  -1.705   3.144  0.00  0.00    +0.002 C 
ATOM      8  CD2 LEU A   1      35.146  -1.710   4.649  0.00  0.00    +0.000 C 
ATOM      9  CD1 LEU A   1      36.167  -2.290   2.442  0.00  0.00    +0.000 C 
ENDBRANCH   6   7
ENDBRANCH   1   6
TORSDOF 4
REMARK  Name = ../refined-set-2016/4zb6/4zb6_pocket.pdb
REMARK  231 active torsions:
REMARK  status: ('A' for Active; 'I' for Inactive)
REMARK    1  A    between atoms: _1  and  _3
REMARK    2  A    between atoms: _3  and  _4
REMARK    3  A    between atoms: _3  and  _6
REMARK    4  A    between atoms: _6  and  _7
REMARK    5  A    between atoms: _10  and  _12
REMARK    6  A    between atoms: _12  and  _13
REMARK    7  A    between atoms: _12  and  _15
REMARK    8  A    between atoms: _15  and  _16
REMARK    9  A    between atoms: _21  and  _23
REMARK   10  A    between atoms: _23  and  _24
REMARK   11  A    between atoms: _23  and  _26
REMARK   12  A    between atoms: _26  and  _27
REMARK   13  A    between atoms: _29  and  _31
REMARK   14  A    between atoms: _31  and  _32
REMARK   15  A    between atoms: _35  and  _36
REMARK   16  A    between atoms: _41  and  _43
REMARK   17  A    between atoms: _43  and  _44
REMARK   18  A    between atoms: _43  and  _46
REMARK   19  A    between atoms: _46  and  _47
REMARK   20  A    between atoms: _52  and  _54
REMARK   21  A    between atoms: _54  and  _55
REMARK   22  A    between atoms: _57  and  _59
REMARK   23  A    between atoms: _59  and  _60
REMARK   24  A    between atoms: _59  and  _62
REMARK   25  A    between atoms: _62  and  _63
REMARK   26  A    between atoms: _73  and  _75
REMARK   27  A    between atoms: _75  and  _76
REMARK   28  A    between atoms: _75  and  _78
REMARK   29  A    between atoms: _78  and  _79
REMARK   30  A    between atoms: _79  and  _80
REMARK   31  A    between atoms: _80  and  _81
REMARK   32  A    between atoms: _81  and  _82
REMARK   33  A    between atoms: _86  and  _88
REMARK   34  A    between atoms: _88  and  _89
REMARK   35  A    between atoms: _88  and  _91
REMARK   36  A    between atoms: _94  and  _96
REMARK   37  A    between atoms: _96  and  _97
REMARK   38  A    between atoms: _96  and  _99
REMARK   39  A    between atoms: _99  and  _100
REMARK   40  A    between atoms: _103  and  _105
REMARK   41  A    between atoms: _105  and  _106
REMARK   42  A    between atoms: _105  and  _108
REMARK   43  A    between atoms: _108  and  _109
REMARK   44  A    between atoms: _112  and  _114
REMARK   45  A    between atoms: _114  and  _115
REMARK   46  A    between atoms: _114  and  _117
REMARK   47  A    between atoms: _117  and  _118
REMARK   48  A    between atoms: _118  and  _119
REMARK   49  A    between atoms: _121  and  _123
REMARK   50  A    between atoms: _123  and  _124
REMARK   51  A    between atoms: _126  and  _128
REMARK   52  A    between atoms: _128  and  _129
REMARK   53  A    between atoms: _128  and  _131
REMARK   54  A    between atoms: _131  and  _132
REMARK   55  A    between atoms: _137  and  _139
REMARK   56  A    between atoms: _139  and  _140
REMARK   57  A    between atoms: _139  and  _142
REMARK   58  A    between atoms: _142  and  _143
REMARK   59  A    between atoms: _143  and  _144
REMARK   60  A    between atoms: _144  and  _145
REMARK   61  A    between atoms: _145  and  _146
REMARK   62  A    between atoms: _150  and  _152
REMARK   63  A    between atoms: _152  and  _153
REMARK   64  A    between atoms: _152  and  _155
REMARK   65  A    between atoms: _155  and  _156
REMARK   66  A    between atoms: _161  and  _162
REMARK   67  A    between atoms: _164  and  _166
REMARK   68  A    between atoms: _166  and  _167
REMARK   69  A    between atoms: _166  and  _169
REMARK   70  A    between atoms: _169  and  _170
REMARK   71  A    between atoms: _175  and  _177
REMARK   72  A    between atoms: _177  and  _178
REMARK   73  A    between atoms: _177  and  _180
REMARK   74  A    between atoms: _180  and  _181
REMARK   75  A    between atoms: _186  and  _188
REMARK   76  A    between atoms: _188  and  _189
REMARK   77  A    between atoms: _191  and  _193
REMARK   78  A    between atoms: _193  and  _194
REMARK   79  A    between atoms: _193  and  _196
REMARK   80  A    between atoms: _196  and  _197
REMARK   81  A    between atoms: _197  and  _198
REMARK   82  A    between atoms: _198  and  _199
REMARK   83  A    between atoms: _208  and  _210
REMARK   84  A    between atoms: _210  and  _211
REMARK   85  A    between atoms: _210  and  _213
REMARK   86  A    between atoms: _217  and  _218
REMARK   87  A    between atoms: _223  and  _225
REMARK   88  A    between atoms: _225  and  _226
REMARK   89  A    between atoms: _229  and  _231
REMARK   90  A    between atoms: _231  and  _232
REMARK   91  A    between atoms: _231  and  _234
REMARK   92  A    between atoms: _234  and  _235
REMARK   93  A    between atoms: _245  and  _247
REMARK   94  A    between atoms: _247  and  _248
REMARK   95  A    between atoms: _247  and  _250
REMARK   96  A    between atoms: _250  and  _251
REMARK   97  A    between atoms: _251  and  _252
REMARK   98  A    between atoms: _255  and  _257
REMARK   99  A    between atoms: _257  and  _258
REMARK  100  A    between atoms: _257  and  _260
REMARK  101  A    between atoms: _260  and  _261
REMARK  102  A    between atoms: _263  and  _265
REMARK  103  A    between atoms: _265  and  _266
REMARK  104  A    between atoms: _265  and  _268
REMARK  105  A    between atoms: _268  and  _269
REMARK  106  A    between atoms: _274  and  _276
REMARK  107  A    between atoms: _276  and  _277
REMARK  108  A    between atoms: _280  and  _282
REMARK  109  A    between atoms: _282  and  _283
REMARK  110  A    between atoms: _282  and  _285
REMARK  111  A    between atoms: _288  and  _290
REMARK  112  A    between atoms: _290  and  _291
REMARK  113  A    between atoms: _290  and  _293
REMARK  114  A    between atoms: _293  and  _294
REMARK  115  A    between atoms: _297  and  _299
REMARK  116  A    between atoms: _299  and  _300
REMARK  117  A    between atoms: _299  and  _302
REMARK  118  A    between atoms: _302  and  _303
REMARK  119  A    between atoms: _303  and  _304
REMARK  120  A    between atoms: _309  and  _311
REMARK  121  A    between atoms: _311  and  _312
REMARK  122  A    between atoms: _315  and  _317
REMARK  123  A    between atoms: _317  and  _318
REMARK  124  A    between atoms: _317  and  _320
REMARK  125  A    between atoms: _320  and  _321
REMARK  126  A    between atoms: _323  and  _325
REMARK  127  A    between atoms: _325  and  _326
REMARK  128  A    between atoms: _328  and  _330
REMARK  129  A    between atoms: _330  and  _331
REMARK  130  A    between atoms: _330  and  _333
REMARK  131  A    between atoms: _333  and  _334
REMARK  132  A    between atoms: _334  and  _335
REMARK  133  A    between atoms: _340  and  _342
REMARK  134  A    between atoms: _342  and  _343
REMARK  135  A    between atoms: _346  and  _347
REMARK  136  A    between atoms: _352  and  _354
REMARK  137  A    between atoms: _354  and  _355
REMARK  138  A    between atoms: _354  and  _357
REMARK  139  A    between atoms: _357  and  _358
REMARK  140  A    between atoms: _363  and  _364
REMARK  141  A    between atoms: _366  and  _368
REMARK  142  A    between atoms: _368  and  _369
REMARK  143  A    between atoms: _368  and  _371
REMARK  144  A    between atoms: _371  and  _372
REMARK  145  A    between atoms: _377  and  _378
REMARK  146  A    between atoms: _380  and  _382
REMARK  147  A    between atoms: _382  and  _383
REMARK  148  A    between atoms: _385  and  _387
REMARK  149  A    between atoms: _387  and  _388
REMARK  150  A    between atoms: _387  and  _390
REMARK  151  A    between atoms: _390  and  _391
REMARK  152  A    between atoms: _391  and  _392
REMARK  153  A    between atoms: _397  and  _399
REMARK  154  A    between atoms: _399  and  _400
REMARK  155  A    between atoms: _403  and  _405
REMARK  156  A    between atoms: _405  and  _406
REMARK  157  A    between atoms: _409  and  _411
REMARK  158  A    between atoms: _411  and  _412
REMARK  159  A    between atoms: _411  and  _414
REMARK  160  A    between atoms: _414  and  _415
REMARK  161  A    between atoms: _425  and  _427
REMARK  162  A    between atoms: _427  and  _428
REMARK  163  A    between atoms: _427  and  _430
REMARK  164  A    between atoms: _430  and  _431
REMARK  165  A    between atoms: _437  and  _439
REMARK  166  A    between atoms: _439  and  _440
REMARK  167  A    between atoms: _439  and  _442
REMARK  168  A    between atoms: _442  and  _443
REMARK  169  A    between atoms: _448  and  _449
REMARK  170  A    between atoms: _451  and  _453
REMARK  171  A    between atoms: _453  and  _454
REMARK  172  A    between atoms: _453  and  _456
REMARK  173  A    between atoms: _456  and  _457
REMARK  174  A    between atoms: _460  and  _462
REMARK  175  A    between atoms: _462  and  _463
REMARK  176  A    between atoms: _462  and  _465
REMARK  177  A    between atoms: _465  and  _466
REMARK  178  A    between atoms: _476  and  _478
REMARK  179  A    between atoms: _478  and  _479
REMARK  180  A    between atoms: _478  and  _481
REMARK  181  A    between atoms: _481  and  _482
REMARK  182  A    between atoms: _485  and  _487
REMARK  183  A    between atoms: _487  and  _488
REMARK  184  A    between atoms: _487  and  _490
REMARK  185  A    between atoms: _490  and  _491
REMARK  186  A    between atoms: _496  and  _497
REMARK  187  A    between atoms: _499  and  _501
REMARK  188  A    between atoms: _501  and  _502
REMARK  189  A    between atoms: _501  and  _504
REMARK  190  A    between atoms: _504  and  _505
REMARK  191  A    between atoms: _511  and  _513
REMARK  192  A    between atoms: _513  and  _514
REMARK  193  A    between atoms: _517  and  _519
REMARK  194  A    between atoms: _519  and  _520
REMARK  195  A    between atoms: _519  and  _522
REMARK  196  A    between atoms: _522  and  _523
REMARK  197  A    between atoms: _525  and  _527
REMARK  198  A    between atoms: _527  and  _528
REMARK  199  A    between atoms: _530  and  _532
REMARK  200  A    between atoms: _532  and  _533
REMARK  201  A    between atoms: _532  and  _535
REMARK  202  A    between atoms: _535  and  _536
REMARK  203  A    between atoms: _536  and  _537
REMARK  204  A    between atoms: _543  and  _544
REMARK  205  A    between atoms: _549  and  _551
REMARK  206  A    between atoms: _551  and  _552
REMARK  207  A    between atoms: _551  and  _554
REMARK  208  A    between atoms: _554  and  _555
REMARK  209  A    between atoms: _560  and  _561
REMARK  210  A    between atoms: _563  and  _565
REMARK  211  A    between atoms: _565  and  _566
REMARK  212  A    between atoms: _565  and  _568
REMARK  213  A    between atoms: _568  and  _569
REMARK  214  A    between atoms: _569  and  _570
REMARK  215  A    between atoms: _570  and  _571
REMARK  216  A    between atoms: _580  and  _582
REMARK  217  A    between atoms: _582  and  _583
REMARK  218  A    between atoms: _582  and  _585
REMARK  219  A    between atoms: _585  and  _586
REMARK  220  A    between atoms: _591  and  _592
REMARK  221  A    between atoms: _594  and  _596
REMARK  222  A    between atoms: _596  and  _597
REMARK  223  A    between atoms: _596  and  _599
REMARK  224  A    between atoms: _599  and  _600
REMARK  225  A    between atoms: _600  and  _601
REMARK  226  A    between atoms: _604  and  _606
REMARK  227  A    between atoms: _606  and  _607
REMARK  228  A    between atoms: _606  and  _609
REMARK  229  A    between atoms: _609  and  _610
REMARK  230  A    between atoms: _610  and  _611
REMARK  231  A    between atoms: _611  and  _612
REMARK                            x       y       z     vdW  Elec       q    Type
REMARK                         _______ _______ _______ _____ _____    ______ ____
ROOT
ATOM      1  C   LEU A   1      29.112  -7.379   4.973  0.00  0.00    +0.238 C 
ATOM      2  O   LEU A   1      29.283  -7.919   6.067  0.00  0.00    -0.274 OA
ATOM      3  N   MET A   2      28.504  -7.986   3.959  0.00  0.00    -0.298 N 
ATOM      4  H   MET A   2      28.381  -7.481   3.058  0.00  0.00    +0.150 HD
ENDROOT
BRANCH   1   5
ATOM      5  CA  LEU A   1      29.608  -5.961   4.720  0.00  0.00    +0.145 C 
BRANCH   5   6
ATOM      6  N   LEU A   1      29.961  -5.774   3.321  0.00  0.00    -0.238 NA
ATOM      7  H   LEU A   1      29.351  -5.187   2.716  0.00  0.00    +0.142 HD
ENDBRANCH   5   6
BRANCH   5   8
ATOM      8  CB  LEU A   1      28.553  -4.937   5.146  0.00  0.00    +0.026 C 
BRANCH   8   9
ATOM      9  CG  LEU A   1      28.880  -3.478   4.830  0.00  0.00    +0.002 C 
ATOM     10  CD2 LEU A   1      27.829  -2.547   5.424  0.00  0.00    +0.000 C 
ATOM     11  CD1 LEU A   1      30.275  -3.109   5.317  0.00  0.00    +0.000 C 
ENDBRANCH   8   9
ENDBRANCH   5   8
ENDBRANCH   1   5
BRANCH   3  12
ATOM     12  CA  MET A   2      28.006  -9.352   4.093  0.00  0.00    +0.138 C 
BRANCH  12  13
ATOM     13  C   MET A   2      29.141 -10.376   4.038  0.00  0.00    +0.227 C 
ATOM     14  O   MET A   2      28.958 -11.541   4.393  0.00  0.00    -0.286 OA
ENDBRANCH  12  13
BRANCH  12  15
ATOM     15  CB  MET A   2      26.928  -9.654   3.048  0.00  0.00    +0.039 C 
BRANCH  15  16
ATOM     16  CG  MET A   2      25.564  -9.064   3.391  0.00  0.00    +0.060 C 
BRANCH  16  17
ATOM     17  SD  MET A   2      24.288  -9.447   2.175  0.00  0.00    -0.139 S 
ATOM     18  CE  MET A   2      23.610 -10.966   2.842  0.00  0.00    +0.069 C 
ENDBRANCH  16  17
ENDBRANCH  15  16
ENDBRANCH  12  15
ENDBRANCH   3  12
TORSDOF 9
REMARK  Name = ../refined-set-2016/4zb6/4zb6_pocket.pdb
REMARK  231 active torsions:
REMARK  status: ('A' for Active; 'I' for Inactive)
REMARK    1  A    between atoms: _1  and  _3
REMARK    2  A    between atoms: _3  and  _4
REMARK    3  A    between atoms: _3  and  _6
REMARK    4  A    between atoms: _6  and  _7
REMARK    5  A    between atoms: _10  and  _12
REMARK    6  A    between atoms: _12  and  _13
REMARK    7  A    between atoms: _12  and  _15
REMARK    8  A    between atoms: _15  and  _16
REMARK    9  A    between atoms: _21  and  _23
REMARK   10  A    between atoms: _23  and  _24
REMARK   11  A    between atoms: _23  and  _26
REMARK   12  A    between atoms: _26  and  _27
REMARK   13  A    between atoms: _29  and  _31
REMARK   14  A    between atoms: _31  and  _32
REMARK   15  A    between atoms: _35  and  _36
REMARK   16  A    between atoms: _41  and  _43
REMARK   17  A    between atoms: _43  and  _44
REMARK   18  A    between atoms: _43  and  _46
REMARK   19  A    between atoms: _46  and  _47
REMARK   20  A    between atoms: _52  and  _54
REMARK   21  A    between atoms: _54  and  _55
REMARK   22  A    between atoms: _57  and  _59
REMARK   23  A    between atoms: _59  and  _60
REMARK   24  A    between atoms: _59  and  _62
REMARK   25  A    between atoms: _62  and  _63
REMARK   26  A    between atoms: _73  and  _75
REMARK   27  A    between atoms: _75  and  _76
REMARK   28  A    between atoms: _75  and  _78
REMARK   29  A    between atoms: _78  and  _79
REMARK   30  A    between atoms: _79  and  _80
REMARK   31  A    between atoms: _80  and  _81
REMARK   32  A    between atoms: _81  and  _82
REMARK   33  A    between atoms: _86  and  _88
REMARK   34  A    between atoms: _88  and  _89
REMARK   35  A    between atoms: _88  and  _91
REMARK   36  A    between atoms: _94  and  _96
REMARK   37  A    between atoms: _96  and  _97
REMARK   38  A    between atoms: _96  and  _99
REMARK   39  A    between atoms: _99  and  _100
REMARK   40  A    between atoms: _103  and  _105
REMARK   41  A    between atoms: _105  and  _106
REMARK   42  A    between atoms: _105  and  _108
REMARK   43  A    between atoms: _108  and  _109
REMARK   44  A    between atoms: _112  and  _114
REMARK   45  A    between atoms: _114  and  _115
REMARK   46  A    between atoms: _114  and  _117
REMARK   47  A    between atoms: _117  and  _118
REMARK   48  A    between atoms: _118  and  _119
REMARK   49  A    between atoms: _121  and  _123
REMARK   50  A    between atoms: _123  and  _124
REMARK   51  A    between atoms: _126  and  _128
REMARK   52  A    between atoms: _128  and  _129
REMARK   53  A    between atoms: _128  and  _131
REMARK   54  A    between atoms: _131  and  _132
REMARK   55  A    between atoms: _137  and  _139
REMARK   56  A    between atoms: _139  and  _140
REMARK   57  A    between atoms: _139  and  _142
REMARK   58  A    between atoms: _142  and  _143
REMARK   59  A    between atoms: _143  and  _144
REMARK   60  A    between atoms: _144  and  _145
REMARK   61  A    between atoms: _145  and  _146
REMARK   62  A    between atoms: _150  and  _152
REMARK   63  A    between atoms: _152  and  _153
REMARK   64  A    between atoms: _152  and  _155
REMARK   65  A    between atoms: _155  and  _156
REMARK   66  A    between atoms: _161  and  _162
REMARK   67  A    between atoms: _164  and  _166
REMARK   68  A    between atoms: _166  and  _167
REMARK   69  A    between atoms: _166  and  _169
REMARK   70  A    between atoms: _169  and  _170
REMARK   71  A    between atoms: _175  and  _177
REMARK   72  A    between atoms: _177  and  _178
REMARK   73  A    between atoms: _177  and  _180
REMARK   74  A    between atoms: _180  and  _181
REMARK   75  A    between atoms: _186  and  _188
REMARK   76  A    between atoms: _188  and  _189
REMARK   77  A    between atoms: _191  and  _193
REMARK   78  A    between atoms: _193  and  _194
REMARK   79  A    between atoms: _193  and  _196
REMARK   80  A    between atoms: _196  and  _197
REMARK   81  A    between atoms: _197  and  _198
REMARK   82  A    between atoms: _198  and  _199
REMARK   83  A    between atoms: _208  and  _210
REMARK   84  A    between atoms: _210  and  _211
REMARK   85  A    between atoms: _210  and  _213
REMARK   86  A    between atoms: _217  and  _218
REMARK   87  A    between atoms: _223  and  _225
REMARK   88  A    between atoms: _225  and  _226
REMARK   89  A    between atoms: _229  and  _231
REMARK   90  A    between atoms: _231  and  _232
REMARK   91  A    between atoms: _231  and  _234
REMARK   92  A    between atoms: _234  and  _235
REMARK   93  A    between atoms: _245  and  _247
REMARK   94  A    between atoms: _247  and  _248
REMARK   95  A    between atoms: _247  and  _250
REMARK   96  A    between atoms: _250  and  _251
REMARK   97  A    between atoms: _251  and  _252
REMARK   98  A    between atoms: _255  and  _257
REMARK   99  A    between atoms: _257  and  _258
REMARK  100  A    between atoms: _257  and  _260
REMARK  101  A    between atoms: _260  and  _261
REMARK  102  A    between atoms: _263  and  _265
REMARK  103  A    between atoms: _265  and  _266
REMARK  104  A    between atoms: _265  and  _268
REMARK  105  A    between atoms: _268  and  _269
REMARK  106  A    between atoms: _274  and  _276
REMARK  107  A    between atoms: _276  and  _277
REMARK  108  A    between atoms: _280  and  _282
REMARK  109  A    between atoms: _282  and  _283
REMARK  110  A    between atoms: _282  and  _285
REMARK  111  A    between atoms: _288  and  _290
REMARK  112  A    between atoms: _290  and  _291
REMARK  113  A    between atoms: _290  and  _293
REMARK  114  A    between atoms: _293  and  _294
REMARK  115  A    between atoms: _297  and  _299
REMARK  116  A    between atoms: _299  and  _300
REMARK  117  A    between atoms: _299  and  _302
REMARK  118  A    between atoms: _302  and  _303
REMARK  119  A    between atoms: _303  and  _304
REMARK  120  A    between atoms: _309  and  _311
REMARK  121  A    between atoms: _311  and  _312
REMARK  122  A    between atoms: _315  and  _317
REMARK  123  A    between atoms: _317  and  _318
REMARK  124  A    between atoms: _317  and  _320
REMARK  125  A    between atoms: _320  and  _321
REMARK  126  A    between atoms: _323  and  _325
REMARK  127  A    between atoms: _325  and  _326
REMARK  128  A    between atoms: _328  and  _330
REMARK  129  A    between atoms: _330  and  _331
REMARK  130  A    between atoms: _330  and  _333
REMARK  131  A    between atoms: _333  and  _334
REMARK  132  A    between atoms: _334  and  _335
REMARK  133  A    between atoms: _340  and  _342
REMARK  134  A    between atoms: _342  and  _343
REMARK  135  A    between atoms: _346  and  _347
REMARK  136  A    between atoms: _352  and  _354
REMARK  137  A    between atoms: _354  and  _355
REMARK  138  A    between atoms: _354  and  _357
REMARK  139  A    between atoms: _357  and  _358
REMARK  140  A    between atoms: _363  and  _364
REMARK  141  A    between atoms: _366  and  _368
REMARK  142  A    between atoms: _368  and  _369
REMARK  143  A    between atoms: _368  and  _371
REMARK  144  A    between atoms: _371  and  _372
REMARK  145  A    between atoms: _377  and  _378
REMARK  146  A    between atoms: _380  and  _382
REMARK  147  A    between atoms: _382  and  _383
REMARK  148  A    between atoms: _385  and  _387
REMARK  149  A    between atoms: _387  and  _388
REMARK  150  A    between atoms: _387  and  _390
REMARK  151  A    between atoms: _390  and  _391
REMARK  152  A    between atoms: _391  and  _392
REMARK  153  A    between atoms: _397  and  _399
REMARK  154  A    between atoms: _399  and  _400
REMARK  155  A    between atoms: _403  and  _405
REMARK  156  A    between atoms: _405  and  _406
REMARK  157  A    between atoms: _409  and  _411
REMARK  158  A    between atoms: _411  and  _412
REMARK  159  A    between atoms: _411  and  _414
REMARK  160  A    between atoms: _414  and  _415
REMARK  161  A    between atoms: _425  and  _427
REMARK  162  A    between atoms: _427  and  _428
REMARK  163  A    between atoms: _427  and  _430
REMARK  164  A    between atoms: _430  and  _431
REMARK  165  A    between atoms: _437  and  _439
REMARK  166  A    between atoms: _439  and  _440
REMARK  167  A    between atoms: _439  and  _442
REMARK  168  A    between atoms: _442  and  _443
REMARK  169  A    between atoms: _448  and  _449
REMARK  170  A    between atoms: _451  and  _453
REMARK  171  A    between atoms: _453  and  _454
REMARK  172  A    between atoms: _453  and  _456
REMARK  173  A    between atoms: _456  and  _457
REMARK  174  A    between atoms: _460  and  _462
REMARK  175  A    between atoms: _462  and  _463
REMARK  176  A    between atoms: _462  and  _465
REMARK  177  A    between atoms: _465  and  _466
REMARK  178  A    between atoms: _476  and  _478
REMARK  179  A    between atoms: _478  and  _479
REMARK  180  A    between atoms: _478  and  _481
REMARK  181  A    between atoms: _481  and  _482
REMARK  182  A    between atoms: _485  and  _487
REMARK  183  A    between atoms: _487  and  _488
REMARK  184  A    between atoms: _487  and  _490
REMARK  185  A    between atoms: _490  and  _491
REMARK  186  A    between atoms: _496  and  _497
REMARK  187  A    between atoms: _499  and  _501
REMARK  188  A    between atoms: _501  and  _502
REMARK  189  A    between atoms: _501  and  _504
REMARK  190  A    between atoms: _504  and  _505
REMARK  191  A    between atoms: _511  and  _513
REMARK  192  A    between atoms: _513  and  _514
REMARK  193  A    between atoms: _517  and  _519
REMARK  194  A    between atoms: _519  and  _520
REMARK  195  A    between atoms: _519  and  _522
REMARK  196  A    between atoms: _522  and  _523
REMARK  197  A    between atoms: _525  and  _527
REMARK  198  A    between atoms: _527  and  _528
REMARK  199  A    between atoms: _530  and  _532
REMARK  200  A    between atoms: _532  and  _533
REMARK  201  A    between atoms: _532  and  _535
REMARK  202  A    between atoms: _535  and  _536
REMARK  203  A    between atoms: _536  and  _537
REMARK  204  A    between atoms: _543  and  _544
REMARK  205  A    between atoms: _549  and  _551
REMARK  206  A    between atoms: _551  and  _552
REMARK  207  A    between atoms: _551  and  _554
REMARK  208  A    between atoms: _554  and  _555
REMARK  209  A    between atoms: _560  and  _561
REMARK  210  A    between atoms: _563  and  _565
REMARK  211  A    between atoms: _565  and  _566
REMARK  212  A    between atoms: _565  and  _568
REMARK  213  A    between atoms: _568  and  _569
REMARK  214  A    between atoms: _569  and  _570
REMARK  215  A    between atoms: _570  and  _571
REMARK  216  A    between atoms: _580  and  _582
REMARK  217  A    between atoms: _582  and  _583
REMARK  218  A    between atoms: _582  and  _585
REMARK  219  A    between atoms: _585  and  _586
REMARK  220  A    between atoms: _591  and  _592
REMARK  221  A    between atoms: _594  and  _596
REMARK  222  A    between atoms: _596  and  _597
REMARK  223  A    between atoms: _596  and  _599
REMARK  224  A    between atoms: _599  and  _600
REMARK  225  A    between atoms: _600  and  _601
REMARK  226  A    between atoms: _604  and  _606
REMARK  227  A    between atoms: _606  and  _607
REMARK  228  A    between atoms: _606  and  _609
REMARK  229  A    between atoms: _609  and  _610
REMARK  230  A    between atoms: _610  and  _611
REMARK  231  A    between atoms: _611  and  _612
REMARK                            x       y       z     vdW  Elec       q    Type
REMARK                         _______ _______ _______ _____ _____    ______ ____
ROOT
ATOM      1  CA  GLY A   1      32.427  -9.187   6.983  0.00  0.00    +0.156 C 
ENDROOT
BRANCH   1   2
ATOM      2  N   GLY A   1      31.766  -9.584   5.752  0.00  0.00    -0.238 NA
ATOM      3  H   GLY A   1      30.815  -9.215   5.549  0.00  0.00    +0.142 HD
ENDBRANCH   1   2
BRANCH   1   4
ATOM      4  C   GLY A   1      33.713  -8.403   6.788  0.00  0.00    +0.226 C 
ATOM      5  O   GLY A   1      34.585  -8.421   7.655  0.00  0.00    -0.287 OA
ENDBRANCH   1   4
TORSDOF 2
REMARK  Name = ../refined-set-2016/4zb6/4zb6_pocket.pdb
REMARK  231 active torsions:
REMARK  status: ('A' for Active; 'I' for Inactive)
REMARK    1  A    between atoms: _1  and  _3
REMARK    2  A    between atoms: _3  and  _4
REMARK    3  A    between atoms: _3  and  _6
REMARK    4  A    between atoms: _6  and  _7
REMARK    5  A    between atoms: _10  and  _12
REMARK    6  A    between atoms: _12  and  _13
REMARK    7  A    between atoms: _12  and  _15
REMARK    8  A    between atoms: _15  and  _16
REMARK    9  A    between atoms: _21  and  _23
REMARK   10  A    between atoms: _23  and  _24
REMARK   11  A    between atoms: _23  and  _26
REMARK   12  A    between atoms: _26  and  _27
REMARK   13  A    between atoms: _29  and  _31
REMARK   14  A    between atoms: _31  and  _32
REMARK   15  A    between atoms: _35  and  _36
REMARK   16  A    between atoms: _41  and  _43
REMARK   17  A    between atoms: _43  and  _44
REMARK   18  A    between atoms: _43  and  _46
REMARK   19  A    between atoms: _46  and  _47
REMARK   20  A    between atoms: _52  and  _54
REMARK   21  A    between atoms: _54  and  _55
REMARK   22  A    between atoms: _57  and  _59
REMARK   23  A    between atoms: _59  and  _60
REMARK   24  A    between atoms: _59  and  _62
REMARK   25  A    between atoms: _62  and  _63
REMARK   26  A    between atoms: _73  and  _75
REMARK   27  A    between atoms: _75  and  _76
REMARK   28  A    between atoms: _75  and  _78
REMARK   29  A    between atoms: _78  and  _79
REMARK   30  A    between atoms: _79  and  _80
REMARK   31  A    between atoms: _80  and  _81
REMARK   32  A    between atoms: _81  and  _82
REMARK   33  A    between atoms: _86  and  _88
REMARK   34  A    between atoms: _88  and  _89
REMARK   35  A    between atoms: _88  and  _91
REMARK   36  A    between atoms: _94  and  _96
REMARK   37  A    between atoms: _96  and  _97
REMARK   38  A    between atoms: _96  and  _99
REMARK   39  A    between atoms: _99  and  _100
REMARK   40  A    between atoms: _103  and  _105
REMARK   41  A    between atoms: _105  and  _106
REMARK   42  A    between atoms: _105  and  _108
REMARK   43  A    between atoms: _108  and  _109
REMARK   44  A    between atoms: _112  and  _114
REMARK   45  A    between atoms: _114  and  _115
REMARK   46  A    between atoms: _114  and  _117
REMARK   47  A    between atoms: _117  and  _118
REMARK   48  A    between atoms: _118  and  _119
REMARK   49  A    between atoms: _121  and  _123
REMARK   50  A    between atoms: _123  and  _124
REMARK   51  A    between atoms: _126  and  _128
REMARK   52  A    between atoms: _128  and  _129
REMARK   53  A    between atoms: _128  and  _131
REMARK   54  A    between atoms: _131  and  _132
REMARK   55  A    between atoms: _137  and  _139
REMARK   56  A    between atoms: _139  and  _140
REMARK   57  A    between atoms: _139  and  _142
REMARK   58  A    between atoms: _142  and  _143
REMARK   59  A    between atoms: _143  and  _144
REMARK   60  A    between atoms: _144  and  _145
REMARK   61  A    between atoms: _145  and  _146
REMARK   62  A    between atoms: _150  and  _152
REMARK   63  A    between atoms: _152  and  _153
REMARK   64  A    between atoms: _152  and  _155
REMARK   65  A    between atoms: _155  and  _156
REMARK   66  A    between atoms: _161  and  _162
REMARK   67  A    between atoms: _164  and  _166
REMARK   68  A    between atoms: _166  and  _167
REMARK   69  A    between atoms: _166  and  _169
REMARK   70  A    between atoms: _169  and  _170
REMARK   71  A    between atoms: _175  and  _177
REMARK   72  A    between atoms: _177  and  _178
REMARK   73  A    between atoms: _177  and  _180
REMARK   74  A    between atoms: _180  and  _181
REMARK   75  A    between atoms: _186  and  _188
REMARK   76  A    between atoms: _188  and  _189
REMARK   77  A    between atoms: _191  and  _193
REMARK   78  A    between atoms: _193  and  _194
REMARK   79  A    between atoms: _193  and  _196
REMARK   80  A    between atoms: _196  and  _197
REMARK   81  A    between atoms: _197  and  _198
REMARK   82  A    between atoms: _198  and  _199
REMARK   83  A    between atoms: _208  and  _210
REMARK   84  A    between atoms: _210  and  _211
REMARK   85  A    between atoms: _210  and  _213
REMARK   86  A    between atoms: _217  and  _218
REMARK   87  A    between atoms: _223  and  _225
REMARK   88  A    between atoms: _225  and  _226
REMARK   89  A    between atoms: _229  and  _231
REMARK   90  A    between atoms: _231  and  _232
REMARK   91  A    between atoms: _231  and  _234
REMARK   92  A    between atoms: _234  and  _235
REMARK   93  A    between atoms: _245  and  _247
REMARK   94  A    between atoms: _247  and  _248
REMARK   95  A    between atoms: _247  and  _250
REMARK   96  A    between atoms: _250  and  _251
REMARK   97  A    between atoms: _251  and  _252
REMARK   98  A    between atoms: _255  and  _257
REMARK   99  A    between atoms: _257  and  _258
REMARK  100  A    between atoms: _257  and  _260
REMARK  101  A    between atoms: _260  and  _261
REMARK  102  A    between atoms: _263  and  _265
REMARK  103  A    between atoms: _265  and  _266
REMARK  104  A    between atoms: _265  and  _268
REMARK  105  A    between atoms: _268  and  _269
REMARK  106  A    between atoms: _274  and  _276
REMARK  107  A    between atoms: _276  and  _277
REMARK  108  A    between atoms: _280  and  _282
REMARK  109  A    between atoms: _282  and  _283
REMARK  110  A    between atoms: _282  and  _285
REMARK  111  A    between atoms: _288  and  _290
REMARK  112  A    between atoms: _290  and  _291
REMARK  113  A    between atoms: _290  and  _293
REMARK  114  A    between atoms: _293  and  _294
REMARK  115  A    between atoms: _297  and  _299
REMARK  116  A    between atoms: _299  and  _300
REMARK  117  A    between atoms: _299  and  _302
REMARK  118  A    between atoms: _302  and  _303
REMARK  119  A    between atoms: _303  and  _304
REMARK  120  A    between atoms: _309  and  _311
REMARK  121  A    between atoms: _311  and  _312
REMARK  122  A    between atoms: _315  and  _317
REMARK  123  A    between atoms: _317  and  _318
REMARK  124  A    between atoms: _317  and  _320
REMARK  125  A    between atoms: _320  and  _321
REMARK  126  A    between atoms: _323  and  _325
REMARK  127  A    between atoms: _325  and  _326
REMARK  128  A    between atoms: _328  and  _330
REMARK  129  A    between atoms: _330  and  _331
REMARK  130  A    between atoms: _330  and  _333
REMARK  131  A    between atoms: _333  and  _334
REMARK  132  A    between atoms: _334  and  _335
REMARK  133  A    between atoms: _340  and  _342
REMARK  134  A    between atoms: _342  and  _343
REMARK  135  A    between atoms: _346  and  _347
REMARK  136  A    between atoms: _352  and  _354
REMARK  137  A    between atoms: _354  and  _355
REMARK  138  A    between atoms: _354  and  _357
REMARK  139  A    between atoms: _357  and  _358
REMARK  140  A    between atoms: _363  and  _364
REMARK  141  A    between atoms: _366  and  _368
REMARK  142  A    between atoms: _368  and  _369
REMARK  143  A    between atoms: _368  and  _371
REMARK  144  A    between atoms: _371  and  _372
REMARK  145  A    between atoms: _377  and  _378
REMARK  146  A    between atoms: _380  and  _382
REMARK  147  A    between atoms: _382  and  _383
REMARK  148  A    between atoms: _385  and  _387
REMARK  149  A    between atoms: _387  and  _388
REMARK  150  A    between atoms: _387  and  _390
REMARK  151  A    between atoms: _390  and  _391
REMARK  152  A    between atoms: _391  and  _392
REMARK  153  A    between atoms: _397  and  _399
REMARK  154  A    between atoms: _399  and  _400
REMARK  155  A    between atoms: _403  and  _405
REMARK  156  A    between atoms: _405  and  _406
REMARK  157  A    between atoms: _409  and  _411
REMARK  158  A    between atoms: _411  and  _412
REMARK  159  A    between atoms: _411  and  _414
REMARK  160  A    between atoms: _414  and  _415
REMARK  161  A    between atoms: _425  and  _427
REMARK  162  A    between atoms: _427  and  _428
REMARK  163  A    between atoms: _427  and  _430
REMARK  164  A    between atoms: _430  and  _431
REMARK  165  A    between atoms: _437  and  _439
REMARK  166  A    between atoms: _439  and  _440
REMARK  167  A    between atoms: _439  and  _442
REMARK  168  A    between atoms: _442  and  _443
REMARK  169  A    between atoms: _448  and  _449
REMARK  170  A    between atoms: _451  and  _453
REMARK  171  A    between atoms: _453  and  _454
REMARK  172  A    between atoms: _453  and  _456
REMARK  173  A    between atoms: _456  and  _457
REMARK  174  A    between atoms: _460  and  _462
REMARK  175  A    between atoms: _462  and  _463
REMARK  176  A    between atoms: _462  and  _465
REMARK  177  A    between atoms: _465  and  _466
REMARK  178  A    between atoms: _476  and  _478
REMARK  179  A    between atoms: _478  and  _479
REMARK  180  A    between atoms: _478  and  _481
REMARK  181  A    between atoms: _481  and  _482
REMARK  182  A    between atoms: _485  and  _487
REMARK  183  A    between atoms: _487  and  _488
REMARK  184  A    between atoms: _487  and  _490
REMARK  185  A    between atoms: _490  and  _491
REMARK  186  A    between atoms: _496  and  _497
REMARK  187  A    between atoms: _499  and  _501
REMARK  188  A    between atoms: _501  and  _502
REMARK  189  A    between atoms: _501  and  _504
REMARK  190  A    between atoms: _504  and  _505
REMARK  191  A    between atoms: _511  and  _513
REMARK  192  A    between atoms: _513  and  _514
REMARK  193  A    between atoms: _517  and  _519
REMARK  194  A    between atoms: _519  and  _520
REMARK  195  A    between atoms: _519  and  _522
REMARK  196  A    between atoms: _522  and  _523
REMARK  197  A    between atoms: _525  and  _527
REMARK  198  A    between atoms: _527  and  _528
REMARK  199  A    between atoms: _530  and  _532
REMARK  200  A    between atoms: _532  and  _533
REMARK  201  A    between atoms: _532  and  _535
REMARK  202  A    between atoms: _535  and  _536
REMARK  203  A    between atoms: _536  and  _537
REMARK  204  A    between atoms: _543  and  _544
REMARK  205  A    between atoms: _549  and  _551
REMARK  206  A    between atoms: _551  and  _552
REMARK  207  A    between atoms: _551  and  _554
REMARK  208  A    between atoms: _554  and  _555
REMARK  209  A    between atoms: _560  and  _561
REMARK  210  A    between atoms: _563  and  _565
REMARK  211  A    between atoms: _565  and  _566
REMARK  212  A    between atoms: _565  and  _568
REMARK  213  A    between atoms: _568  and  _569
REMARK  214  A    between atoms: _569  and  _570
REMARK  215  A    between atoms: _570  and  _571
REMARK  216  A    between atoms: _580  and  _582
REMARK  217  A    between atoms: _582  and  _583
REMARK  218  A    between atoms: _582  and  _585
REMARK  219  A    between atoms: _585  and  _586
REMARK  220  A    between atoms: _591  and  _592
REMARK  221  A    between atoms: _594  and  _596
REMARK  222  A    between atoms: _596  and  _597
REMARK  223  A    between atoms: _596  and  _599
REMARK  224  A    between atoms: _599  and  _600
REMARK  225  A    between atoms: _600  and  _601
REMARK  226  A    between atoms: _604  and  _606
REMARK  227  A    between atoms: _606  and  _607
REMARK  228  A    between atoms: _606  and  _609
REMARK  229  A    between atoms: _609  and  _610
REMARK  230  A    between atoms: _610  and  _611
REMARK  231  A    between atoms: _611  and  _612
REMARK                            x       y       z     vdW  Elec       q    Type
REMARK                         _______ _______ _______ _____ _____    ______ ____
ROOT
ATOM      1  C   HIS A   1      34.669  -4.614   9.240  0.00  0.00    +0.239 C 
ATOM      2  O   HIS A   1      34.929  -3.778  10.104  0.00  0.00    -0.274 OA
ATOM      3  N   LYS A   2      34.723  -5.924   9.465  0.00  0.00    -0.298 N 
ATOM      4  H   LYS A   2      34.483  -6.583   8.697  0.00  0.00    +0.150 HD
ENDROOT
BRANCH   1   5
ATOM      5  CA  HIS A   1      34.258  -4.179   7.837  0.00  0.00    +0.151 C 
BRANCH   5   6
ATOM      6  N   HIS A   1      34.188  -5.307   6.916  0.00  0.00    -0.238 NA
ATOM      7  H   HIS A   1      33.267  -5.756   6.738  0.00  0.00    +0.142 HD
ENDBRANCH   5   6
BRANCH   5   8
ATOM      8  CB  HIS A   1      32.910  -3.463   7.894  0.00  0.00    +0.074 C 
BRANCH   8   9
ATOM      9  CG  HIS A   1      31.774  -4.347   8.305  0.00  0.00    +0.082 A 
ATOM     10  CD2 HIS A   1      30.907  -4.259   9.341  0.00  0.00    +0.115 A 
ATOM     11  NE2 HIS A   1      30.054  -5.332   9.247  0.00  0.00    -0.221 NA
ATOM     12  CE1 HIS A   1      30.384  -6.053   8.191  0.00  0.00    +0.199 A 
ATOM     13  ND1 HIS A   1      31.419  -5.480   7.604  0.00  0.00    -0.227 NA
ENDBRANCH   8   9
ENDBRANCH   5   8
ENDBRANCH   1   5
BRANCH   3  14
ATOM     14  CA  LYS A   2      35.113  -6.455  10.768  0.00  0.00    +0.137 C 
BRANCH  14  15
ATOM     15  C   LYS A   2      36.486  -7.124  10.706  0.00  0.00    +0.227 C 
ATOM     16  O   LYS A   2      36.940  -7.714  11.684  0.00  0.00    -0.286 OA
ENDBRANCH  14  15
BRANCH  14  17
ATOM     17  CB  LYS A   2      34.064  -7.443  11.296  0.00  0.00    +0.028 C 
BRANCH  17  18
ATOM     18  CG  LYS A   2      32.663  -6.864  11.467  0.00  0.00    -0.000 C 
BRANCH  18  19
ATOM     19  CD  LYS A   2      32.638  -5.688  12.448  0.00  0.00    -0.024 C 
BRANCH  19  20
ATOM     20  CE  LYS A   2      31.209  -5.227  12.729  0.00  0.00    -0.086 C 
BRANCH  20  21
ATOM     21  NZ  LYS A   2      31.141  -3.918  13.464  0.00  0.00    +0.380 N 
ATOM     22  HZ1 LYS A   2      31.627  -4.010  14.379  0.00  0.00    -0.089 HD
ATOM     23  HZ2 LYS A   2      30.146  -3.662  13.623  0.00  0.00    -0.089 HD
ATOM     24  HZ3 LYS A   2      31.604  -3.179  12.897  0.00  0.00    -0.089 HD
ENDBRANCH  20  21
ENDBRANCH  19  20
ENDBRANCH  18  19
ENDBRANCH  17  18
ENDBRANCH  14  17
ENDBRANCH   3  14
TORSDOF 11
REMARK  Name = ../refined-set-2016/4zb6/4zb6_pocket.pdb
REMARK  231 active torsions:
REMARK  status: ('A' for Active; 'I' for Inactive)
REMARK    1  A    between atoms: _1  and  _3
REMARK    2  A    between atoms: _3  and  _4
REMARK    3  A    between atoms: _3  and  _6
REMARK    4  A    between atoms: _6  and  _7
REMARK    5  A    between atoms: _10  and  _12
REMARK    6  A    between atoms: _12  and  _13
REMARK    7  A    between atoms: _12  and  _15
REMARK    8  A    between atoms: _15  and  _16
REMARK    9  A    between atoms: _21  and  _23
REMARK   10  A    between atoms: _23  and  _24
REMARK   11  A    between atoms: _23  and  _26
REMARK   12  A    between atoms: _26  and  _27
REMARK   13  A    between atoms: _29  and  _31
REMARK   14  A    between atoms: _31  and  _32
REMARK   15  A    between atoms: _35  and  _36
REMARK   16  A    between atoms: _41  and  _43
REMARK   17  A    between atoms: _43  and  _44
REMARK   18  A    between atoms: _43  and  _46
REMARK   19  A    between atoms: _46  and  _47
REMARK   20  A    between atoms: _52  and  _54
REMARK   21  A    between atoms: _54  and  _55
REMARK   22  A    between atoms: _57  and  _59
REMARK   23  A    between atoms: _59  and  _60
REMARK   24  A    between atoms: _59  and  _62
REMARK   25  A    between atoms: _62  and  _63
REMARK   26  A    between atoms: _73  and  _75
REMARK   27  A    between atoms: _75  and  _76
REMARK   28  A    between atoms: _75  and  _78
REMARK   29  A    between atoms: _78  and  _79
REMARK   30  A    between atoms: _79  and  _80
REMARK   31  A    between atoms: _80  and  _81
REMARK   32  A    between atoms: _81  and  _82
REMARK   33  A    between atoms: _86  and  _88
REMARK   34  A    between atoms: _88  and  _89
REMARK   35  A    between atoms: _88  and  _91
REMARK   36  A    between atoms: _94  and  _96
REMARK   37  A    between atoms: _96  and  _97
REMARK   38  A    between atoms: _96  and  _99
REMARK   39  A    between atoms: _99  and  _100
REMARK   40  A    between atoms: _103  and  _105
REMARK   41  A    between atoms: _105  and  _106
REMARK   42  A    between atoms: _105  and  _108
REMARK   43  A    between atoms: _108  and  _109
REMARK   44  A    between atoms: _112  and  _114
REMARK   45  A    between atoms: _114  and  _115
REMARK   46  A    between atoms: _114  and  _117
REMARK   47  A    between atoms: _117  and  _118
REMARK   48  A    between atoms: _118  and  _119
REMARK   49  A    between atoms: _121  and  _123
REMARK   50  A    between atoms: _123  and  _124
REMARK   51  A    between atoms: _126  and  _128
REMARK   52  A    between atoms: _128  and  _129
REMARK   53  A    between atoms: _128  and  _131
REMARK   54  A    between atoms: _131  and  _132
REMARK   55  A    between atoms: _137  and  _139
REMARK   56  A    between atoms: _139  and  _140
REMARK   57  A    between atoms: _139  and  _142
REMARK   58  A    between atoms: _142  and  _143
REMARK   59  A    between atoms: _143  and  _144
REMARK   60  A    between atoms: _144  and  _145
REMARK   61  A    between atoms: _145  and  _146
REMARK   62  A    between atoms: _150  and  _152
REMARK   63  A    between atoms: _152  and  _153
REMARK   64  A    between atoms: _152  and  _155
REMARK   65  A    between atoms: _155  and  _156
REMARK   66  A    between atoms: _161  and  _162
REMARK   67  A    between atoms: _164  and  _166
REMARK   68  A    between atoms: _166  and  _167
REMARK   69  A    between atoms: _166  and  _169
REMARK   70  A    between atoms: _169  and  _170
REMARK   71  A    between atoms: _175  and  _177
REMARK   72  A    between atoms: _177  and  _178
REMARK   73  A    between atoms: _177  and  _180
REMARK   74  A    between atoms: _180  and  _181
REMARK   75  A    between atoms: _186  and  _188
REMARK   76  A    between atoms: _188  and  _189
REMARK   77  A    between atoms: _191  and  _193
REMARK   78  A    between atoms: _193  and  _194
REMARK   79  A    between atoms: _193  and  _196
REMARK   80  A    between atoms: _196  and  _197
REMARK   81  A    between atoms: _197  and  _198
REMARK   82  A    between atoms: _198  and  _199
REMARK   83  A    between atoms: _208  and  _210
REMARK   84  A    between atoms: _210  and  _211
REMARK   85  A    between atoms: _210  and  _213
REMARK   86  A    between atoms: _217  and  _218
REMARK   87  A    between atoms: _223  and  _225
REMARK   88  A    between atoms: _225  and  _226
REMARK   89  A    between atoms: _229  and  _231
REMARK   90  A    between atoms: _231  and  _232
REMARK   91  A    between atoms: _231  and  _234
REMARK   92  A    between atoms: _234  and  _235
REMARK   93  A    between atoms: _245  and  _247
REMARK   94  A    between atoms: _247  and  _248
REMARK   95  A    between atoms: _247  and  _250
REMARK   96  A    between atoms: _250  and  _251
REMARK   97  A    between atoms: _251  and  _252
REMARK   98  A    between atoms: _255  and  _257
REMARK   99  A    between atoms: _257  and  _258
REMARK  100  A    between atoms: _257  and  _260
REMARK  101  A    between atoms: _260  and  _261
REMARK  102  A    between atoms: _263  and  _265
REMARK  103  A    between atoms: _265  and  _266
REMARK  104  A    between atoms: _265  and  _268
REMARK  105  A    between atoms: _268  and  _269
REMARK  106  A    between atoms: _274  and  _276
REMARK  107  A    between atoms: _276  and  _277
REMARK  108  A    between atoms: _280  and  _282
REMARK  109  A    between atoms: _282  and  _283
REMARK  110  A    between atoms: _282  and  _285
REMARK  111  A    between atoms: _288  and  _290
REMARK  112  A    between atoms: _290  and  _291
REMARK  113  A    between atoms: _290  and  _293
REMARK  114  A    between atoms: _293  and  _294
REMARK  115  A    between atoms: _297  and  _299
REMARK  116  A    between atoms: _299  and  _300
REMARK  117  A    between atoms: _299  and  _302
REMARK  118  A    between atoms: _302  and  _303
REMARK  119  A    between atoms: _303  and  _304
REMARK  120  A    between atoms: _309  and  _311
REMARK  121  A    between atoms: _311  and  _312
REMARK  122  A    between atoms: _315  and  _317
REMARK  123  A    between atoms: _317  and  _318
REMARK  124  A    between atoms: _317  and  _320
REMARK  125  A    between atoms: _320  and  _321
REMARK  126  A    between atoms: _323  and  _325
REMARK  127  A    between atoms: _325  and  _326
REMARK  128  A    between atoms: _328  and  _330
REMARK  129  A    between atoms: _330  and  _331
REMARK  130  A    between atoms: _330  and  _333
REMARK  131  A    between atoms: _333  and  _334
REMARK  132  A    between atoms: _334  and  _335
REMARK  133  A    between atoms: _340  and  _342
REMARK  134  A    between atoms: _342  and  _343
REMARK  135  A    between atoms: _346  and  _347
REMARK  136  A    between atoms: _352  and  _354
REMARK  137  A    between atoms: _354  and  _355
REMARK  138  A    between atoms: _354  and  _357
REMARK  139  A    between atoms: _357  and  _358
REMARK  140  A    between atoms: _363  and  _364
REMARK  141  A    between atoms: _366  and  _368
REMARK  142  A    between atoms: _368  and  _369
REMARK  143  A    between atoms: _368  and  _371
REMARK  144  A    between atoms: _371  and  _372
REMARK  145  A    between atoms: _377  and  _378
REMARK  146  A    between atoms: _380  and  _382
REMARK  147  A    between atoms: _382  and  _383
REMARK  148  A    between atoms: _385  and  _387
REMARK  149  A    between atoms: _387  and  _388
REMARK  150  A    between atoms: _387  and  _390
REMARK  151  A    between atoms: _390  and  _391
REMARK  152  A    between atoms: _391  and  _392
REMARK  153  A    between atoms: _397  and  _399
REMARK  154  A    between atoms: _399  and  _400
REMARK  155  A    between atoms: _403  and  _405
REMARK  156  A    between atoms: _405  and  _406
REMARK  157  A    between atoms: _409  and  _411
REMARK  158  A    between atoms: _411  and  _412
REMARK  159  A    between atoms: _411  and  _414
REMARK  160  A    between atoms: _414  and  _415
REMARK  161  A    between atoms: _425  and  _427
REMARK  162  A    between atoms: _427  and  _428
REMARK  163  A    between atoms: _427  and  _430
REMARK  164  A    between atoms: _430  and  _431
REMARK  165  A    between atoms: _437  and  _439
REMARK  166  A    between atoms: _439  and  _440
REMARK  167  A    between atoms: _439  and  _442
REMARK  168  A    between atoms: _442  and  _443
REMARK  169  A    between atoms: _448  and  _449
REMARK  170  A    between atoms: _451  and  _453
REMARK  171  A    between atoms: _453  and  _454
REMARK  172  A    between atoms: _453  and  _456
REMARK  173  A    between atoms: _456  and  _457
REMARK  174  A    between atoms: _460  and  _462
REMARK  175  A    between atoms: _462  and  _463
REMARK  176  A    between atoms: _462  and  _465
REMARK  177  A    between atoms: _465  and  _466
REMARK  178  A    between atoms: _476  and  _478
REMARK  179  A    between atoms: _478  and  _479
REMARK  180  A    between atoms: _478  and  _481
REMARK  181  A    between atoms: _481  and  _482
REMARK  182  A    between atoms: _485  and  _487
REMARK  183  A    between atoms: _487  and  _488
REMARK  184  A    between atoms: _487  and  _490
REMARK  185  A    between atoms: _490  and  _491
REMARK  186  A    between atoms: _496  and  _497
REMARK  187  A    between atoms: _499  and  _501
REMARK  188  A    between atoms: _501  and  _502
REMARK  189  A    between atoms: _501  and  _504
REMARK  190  A    between atoms: _504  and  _505
REMARK  191  A    between atoms: _511  and  _513
REMARK  192  A    between atoms: _513  and  _514
REMARK  193  A    between atoms: _517  and  _519
REMARK  194  A    between atoms: _519  and  _520
REMARK  195  A    between atoms: _519  and  _522
REMARK  196  A    between atoms: _522  and  _523
REMARK  197  A    between atoms: _525  and  _527
REMARK  198  A    between atoms: _527  and  _528
REMARK  199  A    between atoms: _530  and  _532
REMARK  200  A    between atoms: _532  and  _533
REMARK  201  A    between atoms: _532  and  _535
REMARK  202  A    between atoms: _535  and  _536
REMARK  203  A    between atoms: _536  and  _537
REMARK  204  A    between atoms: _543  and  _544
REMARK  205  A    between atoms: _549  and  _551
REMARK  206  A    between atoms: _551  and  _552
REMARK  207  A    between atoms: _551  and  _554
REMARK  208  A    between atoms: _554  and  _555
REMARK  209  A    between atoms: _560  and  _561
REMARK  210  A    between atoms: _563  and  _565
REMARK  211  A    between atoms: _565  and  _566
REMARK  212  A    between atoms: _565  and  _568
REMARK  213  A    between atoms: _568  and  _569
REMARK  214  A    between atoms: _569  and  _570
REMARK  215  A    between atoms: _570  and  _571
REMARK  216  A    between atoms: _580  and  _582
REMARK  217  A    between atoms: _582  and  _583
REMARK  218  A    between atoms: _582  and  _585
REMARK  219  A    between atoms: _585  and  _586
REMARK  220  A    between atoms: _591  and  _592
REMARK  221  A    between atoms: _594  and  _596
REMARK  222  A    between atoms: _596  and  _597
REMARK  223  A    between atoms: _596  and  _599
REMARK  224  A    between atoms: _599  and  _600
REMARK  225  A    between atoms: _600  and  _601
REMARK  226  A    between atoms: _604  and  _606
REMARK  227  A    between atoms: _606  and  _607
REMARK  228  A    between atoms: _606  and  _609
REMARK  229  A    between atoms: _609  and  _610
REMARK  230  A    between atoms: _610  and  _611
REMARK  231  A    between atoms: _611  and  _612
REMARK                            x       y       z     vdW  Elec       q    Type
REMARK                         _______ _______ _______ _____ _____    ______ ____
ROOT
ATOM      1  CG  TYR A   1      37.408  -1.180   7.867  0.00  0.00    -0.020 A 
ATOM      2  CD2 TYR A   1      36.323  -1.115   8.733  0.00  0.00    -0.001 A 
ATOM      3  CE2 TYR A   1      35.493  -0.003   8.758  0.00  0.00    +0.036 A 
ATOM      4  CZ  TYR A   1      35.752   1.061   7.914  0.00  0.00    +0.134 A 
ATOM      5  CE1 TYR A   1      36.827   1.020   7.053  0.00  0.00    +0.036 A 
ATOM      6  CD1 TYR A   1      37.648  -0.094   7.035  0.00  0.00    -0.001 A 
ENDROOT
BRANCH   4   7
ATOM      7  OH  TYR A   1      34.936   2.171   7.933  0.00  0.00    -0.506 OA
ATOM      8  HH  TYR A   1      34.011   1.903   7.704  0.00  0.00    +0.292 HD
ENDBRANCH   4   7
BRANCH   1   9
ATOM      9  CB  TYR A   1      38.323  -2.383   7.849  0.00  0.00    +0.051 C 
BRANCH   9  10
ATOM     10  CA  TYR A   1      39.679  -2.083   8.493  0.00  0.00    +0.137 C 
BRANCH  10  11
ATOM     11  N   TYR A   1      40.583  -3.223   8.418  0.00  0.00    -0.239 NA
ATOM     12  H   TYR A   1      40.199  -4.181   8.291  0.00  0.00    +0.142 HD
ENDBRANCH  10  11
BRANCH  10  13
ATOM     13  C   TYR A   1      39.489  -1.601   9.927  0.00  0.00    +0.224 C 
ATOM     14  O   TYR A   1      39.243  -0.417  10.157  0.00  0.00    -0.287 OA
ENDBRANCH  10  13
ENDBRANCH   9  10
ENDBRANCH   1   9
TORSDOF 5
REMARK  Name = ../refined-set-2016/4zb6/4zb6_pocket.pdb
REMARK  231 active torsions:
REMARK  status: ('A' for Active; 'I' for Inactive)
REMARK    1  A    between atoms: _1  and  _3
REMARK    2  A    between atoms: _3  and  _4
REMARK    3  A    between atoms: _3  and  _6
REMARK    4  A    between atoms: _6  and  _7
REMARK    5  A    between atoms: _10  and  _12
REMARK    6  A    between atoms: _12  and  _13
REMARK    7  A    between atoms: _12  and  _15
REMARK    8  A    between atoms: _15  and  _16
REMARK    9  A    between atoms: _21  and  _23
REMARK   10  A    between atoms: _23  and  _24
REMARK   11  A    between atoms: _23  and  _26
REMARK   12  A    between atoms: _26  and  _27
REMARK   13  A    between atoms: _29  and  _31
REMARK   14  A    between atoms: _31  and  _32
REMARK   15  A    between atoms: _35  and  _36
REMARK   16  A    between atoms: _41  and  _43
REMARK   17  A    between atoms: _43  and  _44
REMARK   18  A    between atoms: _43  and  _46
REMARK   19  A    between atoms: _46  and  _47
REMARK   20  A    between atoms: _52  and  _54
REMARK   21  A    between atoms: _54  and  _55
REMARK   22  A    between atoms: _57  and  _59
REMARK   23  A    between atoms: _59  and  _60
REMARK   24  A    between atoms: _59  and  _62
REMARK   25  A    between atoms: _62  and  _63
REMARK   26  A    between atoms: _73  and  _75
REMARK   27  A    between atoms: _75  and  _76
REMARK   28  A    between atoms: _75  and  _78
REMARK   29  A    between atoms: _78  and  _79
REMARK   30  A    between atoms: _79  and  _80
REMARK   31  A    between atoms: _80  and  _81
REMARK   32  A    between atoms: _81  and  _82
REMARK   33  A    between atoms: _86  and  _88
REMARK   34  A    between atoms: _88  and  _89
REMARK   35  A    between atoms: _88  and  _91
REMARK   36  A    between atoms: _94  and  _96
REMARK   37  A    between atoms: _96  and  _97
REMARK   38  A    between atoms: _96  and  _99
REMARK   39  A    between atoms: _99  and  _100
REMARK   40  A    between atoms: _103  and  _105
REMARK   41  A    between atoms: _105  and  _106
REMARK   42  A    between atoms: _105  and  _108
REMARK   43  A    between atoms: _108  and  _109
REMARK   44  A    between atoms: _112  and  _114
REMARK   45  A    between atoms: _114  and  _115
REMARK   46  A    between atoms: _114  and  _117
REMARK   47  A    between atoms: _117  and  _118
REMARK   48  A    between atoms: _118  and  _119
REMARK   49  A    between atoms: _121  and  _123
REMARK   50  A    between atoms: _123  and  _124
REMARK   51  A    between atoms: _126  and  _128
REMARK   52  A    between atoms: _128  and  _129
REMARK   53  A    between atoms: _128  and  _131
REMARK   54  A    between atoms: _131  and  _132
REMARK   55  A    between atoms: _137  and  _139
REMARK   56  A    between atoms: _139  and  _140
REMARK   57  A    between atoms: _139  and  _142
REMARK   58  A    between atoms: _142  and  _143
REMARK   59  A    between atoms: _143  and  _144
REMARK   60  A    between atoms: _144  and  _145
REMARK   61  A    between atoms: _145  and  _146
REMARK   62  A    between atoms: _150  and  _152
REMARK   63  A    between atoms: _152  and  _153
REMARK   64  A    between atoms: _152  and  _155
REMARK   65  A    between atoms: _155  and  _156
REMARK   66  A    between atoms: _161  and  _162
REMARK   67  A    between atoms: _164  and  _166
REMARK   68  A    between atoms: _166  and  _167
REMARK   69  A    between atoms: _166  and  _169
REMARK   70  A    between atoms: _169  and  _170
REMARK   71  A    between atoms: _175  and  _177
REMARK   72  A    between atoms: _177  and  _178
REMARK   73  A    between atoms: _177  and  _180
REMARK   74  A    between atoms: _180  and  _181
REMARK   75  A    between atoms: _186  and  _188
REMARK   76  A    between atoms: _188  and  _189
REMARK   77  A    between atoms: _191  and  _193
REMARK   78  A    between atoms: _193  and  _194
REMARK   79  A    between atoms: _193  and  _196
REMARK   80  A    between atoms: _196  and  _197
REMARK   81  A    between atoms: _197  and  _198
REMARK   82  A    between atoms: _198  and  _199
REMARK   83  A    between atoms: _208  and  _210
REMARK   84  A    between atoms: _210  and  _211
REMARK   85  A    between atoms: _210  and  _213
REMARK   86  A    between atoms: _217  and  _218
REMARK   87  A    between atoms: _223  and  _225
REMARK   88  A    between atoms: _225  and  _226
REMARK   89  A    between atoms: _229  and  _231
REMARK   90  A    between atoms: _231  and  _232
REMARK   91  A    between atoms: _231  and  _234
REMARK   92  A    between atoms: _234  and  _235
REMARK   93  A    between atoms: _245  and  _247
REMARK   94  A    between atoms: _247  and  _248
REMARK   95  A    between atoms: _247  and  _250
REMARK   96  A    between atoms: _250  and  _251
REMARK   97  A    between atoms: _251  and  _252
REMARK   98  A    between atoms: _255  and  _257
REMARK   99  A    between atoms: _257  and  _258
REMARK  100  A    between atoms: _257  and  _260
REMARK  101  A    between atoms: _260  and  _261
REMARK  102  A    between atoms: _263  and  _265
REMARK  103  A    between atoms: _265  and  _266
REMARK  104  A    between atoms: _265  and  _268
REMARK  105  A    between atoms: _268  and  _269
REMARK  106  A    between atoms: _274  and  _276
REMARK  107  A    between atoms: _276  and  _277
REMARK  108  A    between atoms: _280  and  _282
REMARK  109  A    between atoms: _282  and  _283
REMARK  110  A    between atoms: _282  and  _285
REMARK  111  A    between atoms: _288  and  _290
REMARK  112  A    between atoms: _290  and  _291
REMARK  113  A    between atoms: _290  and  _293
REMARK  114  A    between atoms: _293  and  _294
REMARK  115  A    between atoms: _297  and  _299
REMARK  116  A    between atoms: _299  and  _300
REMARK  117  A    between atoms: _299  and  _302
REMARK  118  A    between atoms: _302  and  _303
REMARK  119  A    between atoms: _303  and  _304
REMARK  120  A    between atoms: _309  and  _311
REMARK  121  A    between atoms: _311  and  _312
REMARK  122  A    between atoms: _315  and  _317
REMARK  123  A    between atoms: _317  and  _318
REMARK  124  A    between atoms: _317  and  _320
REMARK  125  A    between atoms: _320  and  _321
REMARK  126  A    between atoms: _323  and  _325
REMARK  127  A    between atoms: _325  and  _326
REMARK  128  A    between atoms: _328  and  _330
REMARK  129  A    between atoms: _330  and  _331
REMARK  130  A    between atoms: _330  and  _333
REMARK  131  A    between atoms: _333  and  _334
REMARK  132  A    between atoms: _334  and  _335
REMARK  133  A    between atoms: _340  and  _342
REMARK  134  A    between atoms: _342  and  _343
REMARK  135  A    between atoms: _346  and  _347
REMARK  136  A    between atoms: _352  and  _354
REMARK  137  A    between atoms: _354  and  _355
REMARK  138  A    between atoms: _354  and  _357
REMARK  139  A    between atoms: _357  and  _358
REMARK  140  A    between atoms: _363  and  _364
REMARK  141  A    between atoms: _366  and  _368
REMARK  142  A    between atoms: _368  and  _369
REMARK  143  A    between atoms: _368  and  _371
REMARK  144  A    between atoms: _371  and  _372
REMARK  145  A    between atoms: _377  and  _378
REMARK  146  A    between atoms: _380  and  _382
REMARK  147  A    between atoms: _382  and  _383
REMARK  148  A    between atoms: _385  and  _387
REMARK  149  A    between atoms: _387  and  _388
REMARK  150  A    between atoms: _387  and  _390
REMARK  151  A    between atoms: _390  and  _391
REMARK  152  A    between atoms: _391  and  _392
REMARK  153  A    between atoms: _397  and  _399
REMARK  154  A    between atoms: _399  and  _400
REMARK  155  A    between atoms: _403  and  _405
REMARK  156  A    between atoms: _405  and  _406
REMARK  157  A    between atoms: _409  and  _411
REMARK  158  A    between atoms: _411  and  _412
REMARK  159  A    between atoms: _411  and  _414
REMARK  160  A    between atoms: _414  and  _415
REMARK  161  A    between atoms: _425  and  _427
REMARK  162  A    between atoms: _427  and  _428
REMARK  163  A    between atoms: _427  and  _430
REMARK  164  A    between atoms: _430  and  _431
REMARK  165  A    between atoms: _437  and  _439
REMARK  166  A    between atoms: _439  and  _440
REMARK  167  A    between atoms: _439  and  _442
REMARK  168  A    between atoms: _442  and  _443
REMARK  169  A    between atoms: _448  and  _449
REMARK  170  A    between atoms: _451  and  _453
REMARK  171  A    between atoms: _453  and  _454
REMARK  172  A    between atoms: _453  and  _456
REMARK  173  A    between atoms: _456  and  _457
REMARK  174  A    between atoms: _460  and  _462
REMARK  175  A    between atoms: _462  and  _463
REMARK  176  A    between atoms: _462  and  _465
REMARK  177  A    between atoms: _465  and  _466
REMARK  178  A    between atoms: _476  and  _478
REMARK  179  A    between atoms: _478  and  _479
REMARK  180  A    between atoms: _478  and  _481
REMARK  181  A    between atoms: _481  and  _482
REMARK  182  A    between atoms: _485  and  _487
REMARK  183  A    between atoms: _487  and  _488
REMARK  184  A    between atoms: _487  and  _490
REMARK  185  A    between atoms: _490  and  _491
REMARK  186  A    between atoms: _496  and  _497
REMARK  187  A    between atoms: _499  and  _501
REMARK  188  A    between atoms: _501  and  _502
REMARK  189  A    between atoms: _501  and  _504
REMARK  190  A    between atoms: _504  and  _505
REMARK  191  A    between atoms: _511  and  _513
REMARK  192  A    between atoms: _513  and  _514
REMARK  193  A    between atoms: _517  and  _519
REMARK  194  A    between atoms: _519  and  _520
REMARK  195  A    between atoms: _519  and  _522
REMARK  196  A    between atoms: _522  and  _523
REMARK  197  A    between atoms: _525  and  _527
REMARK  198  A    between atoms: _527  and  _528
REMARK  199  A    between atoms: _530  and  _532
REMARK  200  A    between atoms: _532  and  _533
REMARK  201  A    between atoms: _532  and  _535
REMARK  202  A    between atoms: _535  and  _536
REMARK  203  A    between atoms: _536  and  _537
REMARK  204  A    between atoms: _543  and  _544
REMARK  205  A    between atoms: _549  and  _551
REMARK  206  A    between atoms: _551  and  _552
REMARK  207  A    between atoms: _551  and  _554
REMARK  208  A    between atoms: _554  and  _555
REMARK  209  A    between atoms: _560  and  _561
REMARK  210  A    between atoms: _563  and  _565
REMARK  211  A    between atoms: _565  and  _566
REMARK  212  A    between atoms: _565  and  _568
REMARK  213  A    between atoms: _568  and  _569
REMARK  214  A    between atoms: _569  and  _570
REMARK  215  A    between atoms: _570  and  _571
REMARK  216  A    between atoms: _580  and  _582
REMARK  217  A    between atoms: _582  and  _583
REMARK  218  A    between atoms: _582  and  _585
REMARK  219  A    between atoms: _585  and  _586
REMARK  220  A    between atoms: _591  and  _592
REMARK  221  A    between atoms: _594  and  _596
REMARK  222  A    between atoms: _596  and  _597
REMARK  223  A    between atoms: _596  and  _599
REMARK  224  A    between atoms: _599  and  _600
REMARK  225  A    between atoms: _600  and  _601
REMARK  226  A    between atoms: _604  and  _606
REMARK  227  A    between atoms: _606  and  _607
REMARK  228  A    between atoms: _606  and  _609
REMARK  229  A    between atoms: _609  and  _610
REMARK  230  A    between atoms: _610  and  _611
REMARK  231  A    between atoms: _611  and  _612
REMARK                            x       y       z     vdW  Elec       q    Type
REMARK                         _______ _______ _______ _____ _____    ______ ____
ROOT
ATOM      1  CB  ASN A   1      36.399   2.656  11.534  0.00  0.00    +0.110 C 
ENDROOT
BRANCH   1   2
ATOM      2  CG  ASN A   1      35.240   3.050  12.440  0.00  0.00    +0.221 C 
ATOM      3  OD1 ASN A   1      35.383   3.096  13.660  0.00  0.00    -0.275 OA
ATOM      4  ND2 ASN A   1      34.093   3.352  11.844  0.00  0.00    -0.329 N 
ATOM      5 HD21 ASN A   1      33.272   3.641  12.413  0.00  0.00    +0.145 HD
ATOM      6 HD22 ASN A   1      34.016   3.300  10.808  0.00  0.00    +0.145 HD
ENDBRANCH   1   2
BRANCH   1   7
ATOM      7  CA  ASN A   1      37.677   2.333  12.317  0.00  0.00    +0.142 C 
BRANCH   7   8
ATOM      8  N   ASN A   1      38.782   2.041  11.408  0.00  0.00    -0.239 NA
ATOM      9  H   ASN A   1      38.826   1.108  10.950  0.00  0.00    +0.142 HD
ENDBRANCH   7   8
BRANCH   7  10
ATOM     10  C   ASN A   1      37.432   1.148  13.244  0.00  0.00    +0.225 C 
ATOM     11  O   ASN A   1      36.974   0.099  12.796  0.00  0.00    -0.287 OA
ENDBRANCH   7  10
ENDBRANCH   1   7
TORSDOF 4
REMARK  Name = ../refined-set-2016/4zb6/4zb6_pocket.pdb
REMARK  231 active torsions:
REMARK  status: ('A' for Active; 'I' for Inactive)
REMARK    1  A    between atoms: _1  and  _3
REMARK    2  A    between atoms: _3  and  _4
REMARK    3  A    between atoms: _3  and  _6
REMARK    4  A    between atoms: _6  and  _7
REMARK    5  A    between atoms: _10  and  _12
REMARK    6  A    between atoms: _12  and  _13
REMARK    7  A    between atoms: _12  and  _15
REMARK    8  A    between atoms: _15  and  _16
REMARK    9  A    between atoms: _21  and  _23
REMARK   10  A    between atoms: _23  and  _24
REMARK   11  A    between atoms: _23  and  _26
REMARK   12  A    between atoms: _26  and  _27
REMARK   13  A    between atoms: _29  and  _31
REMARK   14  A    between atoms: _31  and  _32
REMARK   15  A    between atoms: _35  and  _36
REMARK   16  A    between atoms: _41  and  _43
REMARK   17  A    between atoms: _43  and  _44
REMARK   18  A    between atoms: _43  and  _46
REMARK   19  A    between atoms: _46  and  _47
REMARK   20  A    between atoms: _52  and  _54
REMARK   21  A    between atoms: _54  and  _55
REMARK   22  A    between atoms: _57  and  _59
REMARK   23  A    between atoms: _59  and  _60
REMARK   24  A    between atoms: _59  and  _62
REMARK   25  A    between atoms: _62  and  _63
REMARK   26  A    between atoms: _73  and  _75
REMARK   27  A    between atoms: _75  and  _76
REMARK   28  A    between atoms: _75  and  _78
REMARK   29  A    between atoms: _78  and  _79
REMARK   30  A    between atoms: _79  and  _80
REMARK   31  A    between atoms: _80  and  _81
REMARK   32  A    between atoms: _81  and  _82
REMARK   33  A    between atoms: _86  and  _88
REMARK   34  A    between atoms: _88  and  _89
REMARK   35  A    between atoms: _88  and  _91
REMARK   36  A    between atoms: _94  and  _96
REMARK   37  A    between atoms: _96  and  _97
REMARK   38  A    between atoms: _96  and  _99
REMARK   39  A    between atoms: _99  and  _100
REMARK   40  A    between atoms: _103  and  _105
REMARK   41  A    between atoms: _105  and  _106
REMARK   42  A    between atoms: _105  and  _108
REMARK   43  A    between atoms: _108  and  _109
REMARK   44  A    between atoms: _112  and  _114
REMARK   45  A    between atoms: _114  and  _115
REMARK   46  A    between atoms: _114  and  _117
REMARK   47  A    between atoms: _117  and  _118
REMARK   48  A    between atoms: _118  and  _119
REMARK   49  A    between atoms: _121  and  _123
REMARK   50  A    between atoms: _123  and  _124
REMARK   51  A    between atoms: _126  and  _128
REMARK   52  A    between atoms: _128  and  _129
REMARK   53  A    between atoms: _128  and  _131
REMARK   54  A    between atoms: _131  and  _132
REMARK   55  A    between atoms: _137  and  _139
REMARK   56  A    between atoms: _139  and  _140
REMARK   57  A    between atoms: _139  and  _142
REMARK   58  A    between atoms: _142  and  _143
REMARK   59  A    between atoms: _143  and  _144
REMARK   60  A    between atoms: _144  and  _145
REMARK   61  A    between atoms: _145  and  _146
REMARK   62  A    between atoms: _150  and  _152
REMARK   63  A    between atoms: _152  and  _153
REMARK   64  A    between atoms: _152  and  _155
REMARK   65  A    between atoms: _155  and  _156
REMARK   66  A    between atoms: _161  and  _162
REMARK   67  A    between atoms: _164  and  _166
REMARK   68  A    between atoms: _166  and  _167
REMARK   69  A    between atoms: _166  and  _169
REMARK   70  A    between atoms: _169  and  _170
REMARK   71  A    between atoms: _175  and  _177
REMARK   72  A    between atoms: _177  and  _178
REMARK   73  A    between atoms: _177  and  _180
REMARK   74  A    between atoms: _180  and  _181
REMARK   75  A    between atoms: _186  and  _188
REMARK   76  A    between atoms: _188  and  _189
REMARK   77  A    between atoms: _191  and  _193
REMARK   78  A    between atoms: _193  and  _194
REMARK   79  A    between atoms: _193  and  _196
REMARK   80  A    between atoms: _196  and  _197
REMARK   81  A    between atoms: _197  and  _198
REMARK   82  A    between atoms: _198  and  _199
REMARK   83  A    between atoms: _208  and  _210
REMARK   84  A    between atoms: _210  and  _211
REMARK   85  A    between atoms: _210  and  _213
REMARK   86  A    between atoms: _217  and  _218
REMARK   87  A    between atoms: _223  and  _225
REMARK   88  A    between atoms: _225  and  _226
REMARK   89  A    between atoms: _229  and  _231
REMARK   90  A    between atoms: _231  and  _232
REMARK   91  A    between atoms: _231  and  _234
REMARK   92  A    between atoms: _234  and  _235
REMARK   93  A    between atoms: _245  and  _247
REMARK   94  A    between atoms: _247  and  _248
REMARK   95  A    between atoms: _247  and  _250
REMARK   96  A    between atoms: _250  and  _251
REMARK   97  A    between atoms: _251  and  _252
REMARK   98  A    between atoms: _255  and  _257
REMARK   99  A    between atoms: _257  and  _258
REMARK  100  A    between atoms: _257  and  _260
REMARK  101  A    between atoms: _260  and  _261
REMARK  102  A    between atoms: _263  and  _265
REMARK  103  A    between atoms: _265  and  _266
REMARK  104  A    between atoms: _265  and  _268
REMARK  105  A    between atoms: _268  and  _269
REMARK  106  A    between atoms: _274  and  _276
REMARK  107  A    between atoms: _276  and  _277
REMARK  108  A    between atoms: _280  and  _282
REMARK  109  A    between atoms: _282  and  _283
REMARK  110  A    between atoms: _282  and  _285
REMARK  111  A    between atoms: _288  and  _290
REMARK  112  A    between atoms: _290  and  _291
REMARK  113  A    between atoms: _290  and  _293
REMARK  114  A    between atoms: _293  and  _294
REMARK  115  A    between atoms: _297  and  _299
REMARK  116  A    between atoms: _299  and  _300
REMARK  117  A    between atoms: _299  and  _302
REMARK  118  A    between atoms: _302  and  _303
REMARK  119  A    between atoms: _303  and  _304
REMARK  120  A    between atoms: _309  and  _311
REMARK  121  A    between atoms: _311  and  _312
REMARK  122  A    between atoms: _315  and  _317
REMARK  123  A    between atoms: _317  and  _318
REMARK  124  A    between atoms: _317  and  _320
REMARK  125  A    between atoms: _320  and  _321
REMARK  126  A    between atoms: _323  and  _325
REMARK  127  A    between atoms: _325  and  _326
REMARK  128  A    between atoms: _328  and  _330
REMARK  129  A    between atoms: _330  and  _331
REMARK  130  A    between atoms: _330  and  _333
REMARK  131  A    between atoms: _333  and  _334
REMARK  132  A    between atoms: _334  and  _335
REMARK  133  A    between atoms: _340  and  _342
REMARK  134  A    between atoms: _342  and  _343
REMARK  135  A    between atoms: _346  and  _347
REMARK  136  A    between atoms: _352  and  _354
REMARK  137  A    between atoms: _354  and  _355
REMARK  138  A    between atoms: _354  and  _357
REMARK  139  A    between atoms: _357  and  _358
REMARK  140  A    between atoms: _363  and  _364
REMARK  141  A    between atoms: _366  and  _368
REMARK  142  A    between atoms: _368  and  _369
REMARK  143  A    between atoms: _368  and  _371
REMARK  144  A    between atoms: _371  and  _372
REMARK  145  A    between atoms: _377  and  _378
REMARK  146  A    between atoms: _380  and  _382
REMARK  147  A    between atoms: _382  and  _383
REMARK  148  A    between atoms: _385  and  _387
REMARK  149  A    between atoms: _387  and  _388
REMARK  150  A    between atoms: _387  and  _390
REMARK  151  A    between atoms: _390  and  _391
REMARK  152  A    between atoms: _391  and  _392
REMARK  153  A    between atoms: _397  and  _399
REMARK  154  A    between atoms: _399  and  _400
REMARK  155  A    between atoms: _403  and  _405
REMARK  156  A    between atoms: _405  and  _406
REMARK  157  A    between atoms: _409  and  _411
REMARK  158  A    between atoms: _411  and  _412
REMARK  159  A    between atoms: _411  and  _414
REMARK  160  A    between atoms: _414  and  _415
REMARK  161  A    between atoms: _425  and  _427
REMARK  162  A    between atoms: _427  and  _428
REMARK  163  A    between atoms: _427  and  _430
REMARK  164  A    between atoms: _430  and  _431
REMARK  165  A    between atoms: _437  and  _439
REMARK  166  A    between atoms: _439  and  _440
REMARK  167  A    between atoms: _439  and  _442
REMARK  168  A    between atoms: _442  and  _443
REMARK  169  A    between atoms: _448  and  _449
REMARK  170  A    between atoms: _451  and  _453
REMARK  171  A    between atoms: _453  and  _454
REMARK  172  A    between atoms: _453  and  _456
REMARK  173  A    between atoms: _456  and  _457
REMARK  174  A    between atoms: _460  and  _462
REMARK  175  A    between atoms: _462  and  _463
REMARK  176  A    between atoms: _462  and  _465
REMARK  177  A    between atoms: _465  and  _466
REMARK  178  A    between atoms: _476  and  _478
REMARK  179  A    between atoms: _478  and  _479
REMARK  180  A    between atoms: _478  and  _481
REMARK  181  A    between atoms: _481  and  _482
REMARK  182  A    between atoms: _485  and  _487
REMARK  183  A    between atoms: _487  and  _488
REMARK  184  A    between atoms: _487  and  _490
REMARK  185  A    between atoms: _490  and  _491
REMARK  186  A    between atoms: _496  and  _497
REMARK  187  A    between atoms: _499  and  _501
REMARK  188  A    between atoms: _501  and  _502
REMARK  189  A    between atoms: _501  and  _504
REMARK  190  A    between atoms: _504  and  _505
REMARK  191  A    between atoms: _511  and  _513
REMARK  192  A    between atoms: _513  and  _514
REMARK  193  A    between atoms: _517  and  _519
REMARK  194  A    between atoms: _519  and  _520
REMARK  195  A    between atoms: _519  and  _522
REMARK  196  A    between atoms: _522  and  _523
REMARK  197  A    between atoms: _525  and  _527
REMARK  198  A    between atoms: _527  and  _528
REMARK  199  A    between atoms: _530  and  _532
REMARK  200  A    between atoms: _532  and  _533
REMARK  201  A    between atoms: _532  and  _535
REMARK  202  A    between atoms: _535  and  _536
REMARK  203  A    between atoms: _536  and  _537
REMARK  204  A    between atoms: _543  and  _544
REMARK  205  A    between atoms: _549  and  _551
REMARK  206  A    between atoms: _551  and  _552
REMARK  207  A    between atoms: _551  and  _554
REMARK  208  A    between atoms: _554  and  _555
REMARK  209  A    between atoms: _560  and  _561
REMARK  210  A    between atoms: _563  and  _565
REMARK  211  A    between atoms: _565  and  _566
REMARK  212  A    between atoms: _565  and  _568
REMARK  213  A    between atoms: _568  and  _569
REMARK  214  A    between atoms: _569  and  _570
REMARK  215  A    between atoms: _570  and  _571
REMARK  216  A    between atoms: _580  and  _582
REMARK  217  A    between atoms: _582  and  _583
REMARK  218  A    between atoms: _582  and  _585
REMARK  219  A    between atoms: _585  and  _586
REMARK  220  A    between atoms: _591  and  _592
REMARK  221  A    between atoms: _594  and  _596
REMARK  222  A    between atoms: _596  and  _597
REMARK  223  A    between atoms: _596  and  _599
REMARK  224  A    between atoms: _599  and  _600
REMARK  225  A    between atoms: _600  and  _601
REMARK  226  A    between atoms: _604  and  _606
REMARK  227  A    between atoms: _606  and  _607
REMARK  228  A    between atoms: _606  and  _609
REMARK  229  A    between atoms: _609  and  _610
REMARK  230  A    between atoms: _610  and  _611
REMARK  231  A    between atoms: _611  and  _612
REMARK                            x       y       z     vdW  Elec       q    Type
REMARK                         _______ _______ _______ _____ _____    ______ ____
ROOT
ATOM      1  CA  ARG A   3      31.306   0.416  10.454  0.00  0.00    +0.149 C 
ENDROOT
BRANCH   1   4
ATOM      2  C   GLY A   2      32.604  -1.305  11.589  0.00  0.00    +0.243 C 
ATOM      3  O   GLY A   2      31.761  -2.171  11.368  0.00  0.00    -0.273 OA
ATOM      4  N   ARG A   3      32.438  -0.030  11.253  0.00  0.00    -0.297 N 
ATOM      5  H   ARG A   3      33.138   0.670  11.571  0.00  0.00    +0.150 HD
BRANCH   2   6
ATOM      6  CA  GLY A   2      33.893  -1.637  12.316  0.00  0.00    +0.176 C 
BRANCH   6   9
ATOM      7  C   ASN A   1      33.341  -0.508  14.395  0.00  0.00    +0.239 C 
ATOM      8  O   ASN A   1      32.271  -1.106  14.494  0.00  0.00    -0.274 OA
ATOM      9  N   GLY A   2      34.179  -0.689  13.379  0.00  0.00    -0.296 N 
ATOM     10  H   GLY A   2      35.061  -0.139  13.344  0.00  0.00    +0.150 HD
BRANCH   7  11
ATOM     11  CA  ASN A   1      33.770   0.502  15.451  0.00  0.00    +0.154 C 
BRANCH  11  12
ATOM     12  N   ASN A   1      35.198   0.771  15.359  0.00  0.00    -0.238 NA
ATOM     13  H   ASN A   1      35.520   1.674  14.957  0.00  0.00    +0.142 HD
ENDBRANCH  11  12
BRANCH  11  14
ATOM     14  CB  ASN A   1      32.971   1.797  15.284  0.00  0.00    +0.111 C 
BRANCH  14  15
ATOM     15  CG  ASN A   1      31.519   1.632  15.669  0.00  0.00    +0.221 C 
ATOM     16  OD1 ASN A   1      31.194   0.843  16.553  0.00  0.00    -0.275 OA
ATOM     17  ND2 ASN A   1      30.633   2.374  15.008  0.00  0.00    -0.329 N 
ATOM     18 HD21 ASN A   1      29.620   2.298  15.233  0.00  0.00    +0.145 HD
ATOM     19 HD22 ASN A   1      30.953   3.029  14.267  0.00  0.00    +0.145 HD
ENDBRANCH  14  15
ENDBRANCH  11  14
ENDBRANCH   7  11
ENDBRANCH   6   9
ENDBRANCH   2   6
ENDBRANCH   1   4
BRANCH   1  20
ATOM     20  C   ARG A   3      31.821   1.396   9.412  0.00  0.00    +0.241 C 
ATOM     21  O   ARG A   3      32.892   1.982   9.586  0.00  0.00    -0.273 OA
ATOM     22  N   VAL A   4      31.076   1.552   8.323  0.00  0.00    -0.297 N 
ATOM     23  H   VAL A   4      30.231   0.958   8.196  0.00  0.00    +0.150 HD
BRANCH  22  24
ATOM     24  CA  VAL A   4      31.415   2.537   7.300  0.00  0.00    +0.149 C 
BRANCH  24  25
ATOM     25  C   VAL A   4      30.462   3.723   7.460  0.00  0.00    +0.244 C 
ATOM     26  O   VAL A   4      29.371   3.563   7.996  0.00  0.00    -0.273 OA
ATOM     27  N   PRO A   5      30.864   4.922   7.003  0.00  0.00    -0.272 N 
ATOM     28  CD  PRO A   5      29.935   6.067   7.005  0.00  0.00    +0.094 C 
ATOM     29  CG  PRO A   5      30.699   7.142   6.260  0.00  0.00    +0.024 C 
ATOM     30  CB  PRO A   5      31.689   6.418   5.410  0.00  0.00    +0.031 C 
ATOM     31  CA  PRO A   5      32.103   5.236   6.290  0.00  0.00    +0.152 C 
BRANCH  31  32
ATOM     32  C   PRO A   5      33.266   5.654   7.178  0.00  0.00    +0.241 C 
ATOM     33  O   PRO A   5      33.116   5.874   8.385  0.00  0.00    -0.273 OA
ATOM     34  N   ALA A   6      34.426   5.763   6.541  0.00  0.00    -0.298 N 
ATOM     35  H   ALA A   6      34.475   5.441   5.553  0.00  0.00    +0.150 HD
BRANCH  34  36
ATOM     36  CA  ALA A   6      35.629   6.306   7.144  0.00  0.00    +0.137 C 
ATOM     37  CB  ALA A   6      36.480   5.199   7.717  0.00  0.00    +0.030 C 
BRANCH  36  38
ATOM     38  C   ALA A   6      36.375   7.045   6.040  0.00  0.00    +0.227 C 
ATOM     39  O   ALA A   6      36.249   6.700   4.863  0.00  0.00    -0.286 OA
ENDBRANCH  36  38
ENDBRANCH  34  36
ENDBRANCH  31  32
ENDBRANCH  24  25
BRANCH  24  40
ATOM     40  CB  VAL A   4      31.334   1.923   5.871  0.00  0.00    +0.027 C 
ATOM     41  CG2 VAL A   4      30.027   1.171   5.673  0.00  0.00    +0.002 C 
ATOM     42  CG1 VAL A   4      32.526   1.012   5.619  0.00  0.00    +0.002 C 
ENDBRANCH  24  40
ENDBRANCH  22  24
ENDBRANCH   1  20
BRANCH   1  43
ATOM     43  CB  ARG A   3      30.223   1.065  11.327  0.00  0.00    +0.033 C 
BRANCH  43  44
ATOM     44  CG  ARG A   3      29.562   0.106  12.311  0.00  0.00    +0.045 C 
BRANCH  44  45
ATOM     45  CD  ARG A   3      28.427   0.772  13.075  0.00  0.00    +0.174 C 
BRANCH  45  46
ATOM     46  NE  ARG A   3      27.120   0.258  12.676  0.00  0.00    -0.265 N 
ATOM     47  CZ  ARG A   3      25.954   0.725  13.119  0.00  0.00    +0.342 C 
ATOM     48  NH2 ARG A   3      25.916   1.728  13.984  0.00  0.00    -0.292 N 
ATOM     49 HH21 ARG A   3      25.001   2.086  14.325  0.00  0.00    +0.255 HD
ATOM     50 HH22 ARG A   3      26.801   2.157  14.322  0.00  0.00    +0.255 HD
ATOM     51  NH1 ARG A   3      24.820   0.187  12.690  0.00  0.00    -0.292 N 
ATOM     52 HH11 ARG A   3      23.909   0.551  13.035  0.00  0.00    +0.255 HD
ATOM     53 HH12 ARG A   3      24.842  -0.598  12.009  0.00  0.00    +0.255 HD
ATOM     54  HE  ARG A   3      27.098  -0.529  11.997  0.00  0.00    +0.259 HD
ENDBRANCH  45  46
ENDBRANCH  44  45
ENDBRANCH  43  44
ENDBRANCH   1  43
TORSDOF 18
REMARK  Name = ../refined-set-2016/4zb6/4zb6_pocket.pdb
REMARK  231 active torsions:
REMARK  status: ('A' for Active; 'I' for Inactive)
REMARK    1  A    between atoms: _1  and  _3
REMARK    2  A    between atoms: _3  and  _4
REMARK    3  A    between atoms: _3  and  _6
REMARK    4  A    between atoms: _6  and  _7
REMARK    5  A    between atoms: _10  and  _12
REMARK    6  A    between atoms: _12  and  _13
REMARK    7  A    between atoms: _12  and  _15
REMARK    8  A    between atoms: _15  and  _16
REMARK    9  A    between atoms: _21  and  _23
REMARK   10  A    between atoms: _23  and  _24
REMARK   11  A    between atoms: _23  and  _26
REMARK   12  A    between atoms: _26  and  _27
REMARK   13  A    between atoms: _29  and  _31
REMARK   14  A    between atoms: _31  and  _32
REMARK   15  A    between atoms: _35  and  _36
REMARK   16  A    between atoms: _41  and  _43
REMARK   17  A    between atoms: _43  and  _44
REMARK   18  A    between atoms: _43  and  _46
REMARK   19  A    between atoms: _46  and  _47
REMARK   20  A    between atoms: _52  and  _54
REMARK   21  A    between atoms: _54  and  _55
REMARK   22  A    between atoms: _57  and  _59
REMARK   23  A    between atoms: _59  and  _60
REMARK   24  A    between atoms: _59  and  _62
REMARK   25  A    between atoms: _62  and  _63
REMARK   26  A    between atoms: _73  and  _75
REMARK   27  A    between atoms: _75  and  _76
REMARK   28  A    between atoms: _75  and  _78
REMARK   29  A    between atoms: _78  and  _79
REMARK   30  A    between atoms: _79  and  _80
REMARK   31  A    between atoms: _80  and  _81
REMARK   32  A    between atoms: _81  and  _82
REMARK   33  A    between atoms: _86  and  _88
REMARK   34  A    between atoms: _88  and  _89
REMARK   35  A    between atoms: _88  and  _91
REMARK   36  A    between atoms: _94  and  _96
REMARK   37  A    between atoms: _96  and  _97
REMARK   38  A    between atoms: _96  and  _99
REMARK   39  A    between atoms: _99  and  _100
REMARK   40  A    between atoms: _103  and  _105
REMARK   41  A    between atoms: _105  and  _106
REMARK   42  A    between atoms: _105  and  _108
REMARK   43  A    between atoms: _108  and  _109
REMARK   44  A    between atoms: _112  and  _114
REMARK   45  A    between atoms: _114  and  _115
REMARK   46  A    between atoms: _114  and  _117
REMARK   47  A    between atoms: _117  and  _118
REMARK   48  A    between atoms: _118  and  _119
REMARK   49  A    between atoms: _121  and  _123
REMARK   50  A    between atoms: _123  and  _124
REMARK   51  A    between atoms: _126  and  _128
REMARK   52  A    between atoms: _128  and  _129
REMARK   53  A    between atoms: _128  and  _131
REMARK   54  A    between atoms: _131  and  _132
REMARK   55  A    between atoms: _137  and  _139
REMARK   56  A    between atoms: _139  and  _140
REMARK   57  A    between atoms: _139  and  _142
REMARK   58  A    between atoms: _142  and  _143
REMARK   59  A    between atoms: _143  and  _144
REMARK   60  A    between atoms: _144  and  _145
REMARK   61  A    between atoms: _145  and  _146
REMARK   62  A    between atoms: _150  and  _152
REMARK   63  A    between atoms: _152  and  _153
REMARK   64  A    between atoms: _152  and  _155
REMARK   65  A    between atoms: _155  and  _156
REMARK   66  A    between atoms: _161  and  _162
REMARK   67  A    between atoms: _164  and  _166
REMARK   68  A    between atoms: _166  and  _167
REMARK   69  A    between atoms: _166  and  _169
REMARK   70  A    between atoms: _169  and  _170
REMARK   71  A    between atoms: _175  and  _177
REMARK   72  A    between atoms: _177  and  _178
REMARK   73  A    between atoms: _177  and  _180
REMARK   74  A    between atoms: _180  and  _181
REMARK   75  A    between atoms: _186  and  _188
REMARK   76  A    between atoms: _188  and  _189
REMARK   77  A    between atoms: _191  and  _193
REMARK   78  A    between atoms: _193  and  _194
REMARK   79  A    between atoms: _193  and  _196
REMARK   80  A    between atoms: _196  and  _197
REMARK   81  A    between atoms: _197  and  _198
REMARK   82  A    between atoms: _198  and  _199
REMARK   83  A    between atoms: _208  and  _210
REMARK   84  A    between atoms: _210  and  _211
REMARK   85  A    between atoms: _210  and  _213
REMARK   86  A    between atoms: _217  and  _218
REMARK   87  A    between atoms: _223  and  _225
REMARK   88  A    between atoms: _225  and  _226
REMARK   89  A    between atoms: _229  and  _231
REMARK   90  A    between atoms: _231  and  _232
REMARK   91  A    between atoms: _231  and  _234
REMARK   92  A    between atoms: _234  and  _235
REMARK   93  A    between atoms: _245  and  _247
REMARK   94  A    between atoms: _247  and  _248
REMARK   95  A    between atoms: _247  and  _250
REMARK   96  A    between atoms: _250  and  _251
REMARK   97  A    between atoms: _251  and  _252
REMARK   98  A    between atoms: _255  and  _257
REMARK   99  A    between atoms: _257  and  _258
REMARK  100  A    between atoms: _257  and  _260
REMARK  101  A    between atoms: _260  and  _261
REMARK  102  A    between atoms: _263  and  _265
REMARK  103  A    between atoms: _265  and  _266
REMARK  104  A    between atoms: _265  and  _268
REMARK  105  A    between atoms: _268  and  _269
REMARK  106  A    between atoms: _274  and  _276
REMARK  107  A    between atoms: _276  and  _277
REMARK  108  A    between atoms: _280  and  _282
REMARK  109  A    between atoms: _282  and  _283
REMARK  110  A    between atoms: _282  and  _285
REMARK  111  A    between atoms: _288  and  _290
REMARK  112  A    between atoms: _290  and  _291
REMARK  113  A    between atoms: _290  and  _293
REMARK  114  A    between atoms: _293  and  _294
REMARK  115  A    between atoms: _297  and  _299
REMARK  116  A    between atoms: _299  and  _300
REMARK  117  A    between atoms: _299  and  _302
REMARK  118  A    between atoms: _302  and  _303
REMARK  119  A    between atoms: _303  and  _304
REMARK  120  A    between atoms: _309  and  _311
REMARK  121  A    between atoms: _311  and  _312
REMARK  122  A    between atoms: _315  and  _317
REMARK  123  A    between atoms: _317  and  _318
REMARK  124  A    between atoms: _317  and  _320
REMARK  125  A    between atoms: _320  and  _321
REMARK  126  A    between atoms: _323  and  _325
REMARK  127  A    between atoms: _325  and  _326
REMARK  128  A    between atoms: _328  and  _330
REMARK  129  A    between atoms: _330  and  _331
REMARK  130  A    between atoms: _330  and  _333
REMARK  131  A    between atoms: _333  and  _334
REMARK  132  A    between atoms: _334  and  _335
REMARK  133  A    between atoms: _340  and  _342
REMARK  134  A    between atoms: _342  and  _343
REMARK  135  A    between atoms: _346  and  _347
REMARK  136  A    between atoms: _352  and  _354
REMARK  137  A    between atoms: _354  and  _355
REMARK  138  A    between atoms: _354  and  _357
REMARK  139  A    between atoms: _357  and  _358
REMARK  140  A    between atoms: _363  and  _364
REMARK  141  A    between atoms: _366  and  _368
REMARK  142  A    between atoms: _368  and  _369
REMARK  143  A    between atoms: _368  and  _371
REMARK  144  A    between atoms: _371  and  _372
REMARK  145  A    between atoms: _377  and  _378
REMARK  146  A    between atoms: _380  and  _382
REMARK  147  A    between atoms: _382  and  _383
REMARK  148  A    between atoms: _385  and  _387
REMARK  149  A    between atoms: _387  and  _388
REMARK  150  A    between atoms: _387  and  _390
REMARK  151  A    between atoms: _390  and  _391
REMARK  152  A    between atoms: _391  and  _392
REMARK  153  A    between atoms: _397  and  _399
REMARK  154  A    between atoms: _399  and  _400
REMARK  155  A    between atoms: _403  and  _405
REMARK  156  A    between atoms: _405  and  _406
REMARK  157  A    between atoms: _409  and  _411
REMARK  158  A    between atoms: _411  and  _412
REMARK  159  A    between atoms: _411  and  _414
REMARK  160  A    between atoms: _414  and  _415
REMARK  161  A    between atoms: _425  and  _427
REMARK  162  A    between atoms: _427  and  _428
REMARK  163  A    between atoms: _427  and  _430
REMARK  164  A    between atoms: _430  and  _431
REMARK  165  A    between atoms: _437  and  _439
REMARK  166  A    between atoms: _439  and  _440
REMARK  167  A    between atoms: _439  and  _442
REMARK  168  A    between atoms: _442  and  _443
REMARK  169  A    between atoms: _448  and  _449
REMARK  170  A    between atoms: _451  and  _453
REMARK  171  A    between atoms: _453  and  _454
REMARK  172  A    between atoms: _453  and  _456
REMARK  173  A    between atoms: _456  and  _457
REMARK  174  A    between atoms: _460  and  _462
REMARK  175  A    between atoms: _462  and  _463
REMARK  176  A    between atoms: _462  and  _465
REMARK  177  A    between atoms: _465  and  _466
REMARK  178  A    between atoms: _476  and  _478
REMARK  179  A    between atoms: _478  and  _479
REMARK  180  A    between atoms: _478  and  _481
REMARK  181  A    between atoms: _481  and  _482
REMARK  182  A    between atoms: _485  and  _487
REMARK  183  A    between atoms: _487  and  _488
REMARK  184  A    between atoms: _487  and  _490
REMARK  185  A    between atoms: _490  and  _491
REMARK  186  A    between atoms: _496  and  _497
REMARK  187  A    between atoms: _499  and  _501
REMARK  188  A    between atoms: _501  and  _502
REMARK  189  A    between atoms: _501  and  _504
REMARK  190  A    between atoms: _504  and  _505
REMARK  191  A    between atoms: _511  and  _513
REMARK  192  A    between atoms: _513  and  _514
REMARK  193  A    between atoms: _517  and  _519
REMARK  194  A    between atoms: _519  and  _520
REMARK  195  A    between atoms: _519  and  _522
REMARK  196  A    between atoms: _522  and  _523
REMARK  197  A    between atoms: _525  and  _527
REMARK  198  A    between atoms: _527  and  _528
REMARK  199  A    between atoms: _530  and  _532
REMARK  200  A    between atoms: _532  and  _533
REMARK  201  A    between atoms: _532  and  _535
REMARK  202  A    between atoms: _535  and  _536
REMARK  203  A    between atoms: _536  and  _537
REMARK  204  A    between atoms: _543  and  _544
REMARK  205  A    between atoms: _549  and  _551
REMARK  206  A    between atoms: _551  and  _552
REMARK  207  A    between atoms: _551  and  _554
REMARK  208  A    between atoms: _554  and  _555
REMARK  209  A    between atoms: _560  and  _561
REMARK  210  A    between atoms: _563  and  _565
REMARK  211  A    between atoms: _565  and  _566
REMARK  212  A    between atoms: _565  and  _568
REMARK  213  A    between atoms: _568  and  _569
REMARK  214  A    between atoms: _569  and  _570
REMARK  215  A    between atoms: _570  and  _571
REMARK  216  A    between atoms: _580  and  _582
REMARK  217  A    between atoms: _582  and  _583
REMARK  218  A    between atoms: _582  and  _585
REMARK  219  A    between atoms: _585  and  _586
REMARK  220  A    between atoms: _591  and  _592
REMARK  221  A    between atoms: _594  and  _596
REMARK  222  A    between atoms: _596  and  _597
REMARK  223  A    between atoms: _596  and  _599
REMARK  224  A    between atoms: _599  and  _600
REMARK  225  A    between atoms: _600  and  _601
REMARK  226  A    between atoms: _604  and  _606
REMARK  227  A    between atoms: _606  and  _607
REMARK  228  A    between atoms: _606  and  _609
REMARK  229  A    between atoms: _609  and  _610
REMARK  230  A    between atoms: _610  and  _611
REMARK  231  A    between atoms: _611  and  _612
REMARK                            x       y       z     vdW  Elec       q    Type
REMARK                         _______ _______ _______ _____ _____    ______ ____
ROOT
ATOM      1  C   SER A   3      29.729  11.843   9.082  0.00  0.00    +0.243 C 
ATOM      2  N   ASN A   4      29.126  12.223  10.207  0.00  0.00    -0.297 N 
ATOM      3  H   ASN A   4      28.768  11.513  10.877  0.00  0.00    +0.150 HD
ATOM      4  O   SER A   3      30.148  12.657   8.258  0.00  0.00    -0.273 OA
ENDROOT
BRANCH   2   5
ATOM      5  CA  ASN A   4      28.973  13.650  10.491  0.00  0.00    +0.158 C 
BRANCH   5   6
ATOM      6  C   ASN A   4      30.239  14.303  11.045  0.00  0.00    +0.241 C 
ATOM      7  N   ALA A   5      31.117  13.504  11.645  0.00  0.00    -0.297 N 
ATOM      8  H   ALA A   5      30.869  12.509  11.820  0.00  0.00    +0.150 HD
ATOM      9  O   ASN A   4      30.422  15.515  10.920  0.00  0.00    -0.273 OA
BRANCH   7  10
ATOM     10  CA  ALA A   5      32.424  14.003  12.061  0.00  0.00    +0.149 C 
ATOM     11  CB  ALA A   5      33.080  13.057  13.059  0.00  0.00    +0.031 C 
BRANCH  10  12
ATOM     12  C   ALA A   5      33.310  14.188  10.835  0.00  0.00    +0.241 C 
ATOM     13  O   ALA A   5      34.058  15.163  10.740  0.00  0.00    -0.273 OA
ATOM     14  N   VAL A   6      33.217  13.249   9.899  0.00  0.00    -0.297 N 
ATOM     15  H   VAL A   6      32.620  12.417  10.080  0.00  0.00    +0.150 HD
BRANCH  14  16
ATOM     16  CA  VAL A   6      33.925  13.345   8.625  0.00  0.00    +0.149 C 
BRANCH  16  17
ATOM     17  C   VAL A   6      33.475  14.600   7.889  0.00  0.00    +0.241 C 
ATOM     18  N   THR A   7      32.163  14.794   7.848  0.00  0.00    -0.296 N 
ATOM     19  H   THR A   7      31.538  14.088   8.286  0.00  0.00    +0.150 HD
ATOM     20  O   VAL A   6      34.289  15.364   7.371  0.00  0.00    -0.273 OA
BRANCH  18  21
ATOM     21  CA  THR A   7      31.565  15.961   7.211  0.00  0.00    +0.164 C 
BRANCH  21  22
ATOM     22  CB  THR A   7      30.037  15.936   7.364  0.00  0.00    +0.136 C 
ATOM     23  CG2 THR A   7      29.418  17.215   6.809  0.00  0.00    +0.034 C 
BRANCH  22  24
ATOM     24  OG1 THR A   7      29.510  14.813   6.652  0.00  0.00    -0.382 OA
ATOM     25  HG1 THR A   7      28.525  14.795   6.749  0.00  0.00    +0.210 HD
ENDBRANCH  22  24
ENDBRANCH  21  22
BRANCH  21  26
ATOM     26  C   THR A   7      32.098  17.261   7.805  0.00  0.00    +0.229 C 
ATOM     27  O   THR A   7      32.479  18.173   7.073  0.00  0.00    -0.286 OA
ENDBRANCH  21  26
ENDBRANCH  18  21
ENDBRANCH  16  17
BRANCH  16  28
ATOM     28  CB  VAL A   6      33.634  12.125   7.739  0.00  0.00    +0.027 C 
ATOM     29  CG2 VAL A   6      34.183  10.851   8.391  0.00  0.00    +0.002 C 
ATOM     30  CG1 VAL A   6      34.219  12.319   6.342  0.00  0.00    +0.002 C 
ENDBRANCH  16  28
ENDBRANCH  14  16
ENDBRANCH  10  12
ENDBRANCH   7  10
ENDBRANCH   5   6
BRANCH   5  31
ATOM     31  CB  ASN A   4      27.748  13.932  11.370  0.00  0.00    +0.114 C 
BRANCH  31  32
ATOM     32  CG  ASN A   4      26.441  13.770  10.608  0.00  0.00    +0.222 C 
ATOM     33  ND2 ASN A   4      25.327  14.081  11.261  0.00  0.00    -0.329 N 
ATOM     34 HD21 ASN A   4      25.377  14.417  12.244  0.00  0.00    +0.145 HD
ATOM     35 HD22 ASN A   4      24.405  13.988  10.789  0.00  0.00    +0.145 HD
ATOM     36  OD1 ASN A   4      26.437  13.367   9.442  0.00  0.00    -0.275 OA
ENDBRANCH  31  32
ENDBRANCH   5  31
ENDBRANCH   2   5
BRANCH   1  37
ATOM     37  CA  SER A   3      29.902  10.342   8.837  0.00  0.00    +0.178 C 
BRANCH  37  40
ATOM     38  C   GLU A   2      31.197   9.866  10.855  0.00  0.00    +0.241 C 
ATOM     39  O   GLU A   2      31.880  10.888  10.744  0.00  0.00    -0.273 OA
ATOM     40  N   SER A   3      30.181   9.571  10.046  0.00  0.00    -0.295 N 
ATOM     41  H   SER A   3      29.567   8.766  10.283  0.00  0.00    +0.150 HD
BRANCH  38  42
ATOM     42  CA  GLU A   2      31.487   8.846  11.952  0.00  0.00    +0.149 C 
BRANCH  42  45
ATOM     43  C   TRP A   1      33.955   8.767  11.764  0.00  0.00    +0.239 C 
ATOM     44  O   TRP A   1      34.160   9.792  12.415  0.00  0.00    -0.274 OA
ATOM     45  N   GLU A   2      32.766   8.169  11.680  0.00  0.00    -0.297 N 
ATOM     46  H   GLU A   2      32.741   7.166  11.406  0.00  0.00    +0.150 HD
BRANCH  43  47
ATOM     47  CA  TRP A   1      35.109   8.108  11.016  0.00  0.00    +0.149 C 
BRANCH  47  48
ATOM     48  N   TRP A   1      36.353   8.802  11.320  0.00  0.00    -0.238 NA
ATOM     49  H   TRP A   1      36.634   8.938  12.312  0.00  0.00    +0.142 HD
ENDBRANCH  47  48
BRANCH  47  50
ATOM     50  CB  TRP A   1      35.222   6.602  11.300  0.00  0.00    +0.054 C 
BRANCH  50  51
ATOM     51  CG  TRP A   1      35.886   6.267  12.596  0.00  0.00    -0.002 A 
ATOM     52  CD2 TRP A   1      35.243   6.019  13.851  0.00  0.00    +0.013 A 
ATOM     53  CE2 TRP A   1      36.254   5.744  14.793  0.00  0.00    +0.056 A 
ATOM     54  CZ2 TRP A   1      35.972   5.454  16.131  0.00  0.00    +0.017 A 
ATOM     55  CH2 TRP A   1      34.657   5.446  16.512  0.00  0.00    +0.001 A 
ATOM     56  CZ3 TRP A   1      33.627   5.718  15.597  0.00  0.00    +0.000 A 
ATOM     57  NE1 TRP A   1      37.458   5.816  14.140  0.00  0.00    -0.352 N 
ATOM     58  HE1 TRP A   1      38.391   5.664  14.573  0.00  0.00    +0.166 HD
ATOM     59  CE3 TRP A   1      33.907   6.003  14.267  0.00  0.00    +0.001 A 
ATOM     60  CD1 TRP A   1      37.228   6.123  12.819  0.00  0.00    +0.068 A 
ENDBRANCH  50  51
ENDBRANCH  47  50
ENDBRANCH  43  47
ENDBRANCH  42  45
BRANCH  42  61
ATOM     61  CB  GLU A   2      31.406   9.487  13.352  0.00  0.00    +0.041 C 
BRANCH  61  62
ATOM     62  CG  GLU A   2      31.232   8.471  14.483  0.00  0.00    +0.116 C 
BRANCH  62  63
ATOM     63  CD  GLU A   2      29.967   7.637  14.329  0.00  0.00    +0.365 C 
ATOM     64  OE2 GLU A   2      30.032   6.403  14.535  0.00  0.00    -0.246 OA
ATOM     65  OE1 GLU A   2      28.903   8.211  14.008  0.00  0.00    -0.246 OA
ENDBRANCH  62  63
ENDBRANCH  61  62
ENDBRANCH  42  61
ENDBRANCH  38  42
ENDBRANCH  37  40
BRANCH  37  66
ATOM     66  CB  SER A   3      28.687   9.770   8.099  0.00  0.00    +0.166 C 
BRANCH  66  67
ATOM     67  OG  SER A   3      27.542   9.769   8.930  0.00  0.00    -0.380 OA
ATOM     68  H   SER A   3      27.717   9.214   9.731  0.00  0.00    +0.211 HD
ENDBRANCH  66  67
ENDBRANCH  37  66
ENDBRANCH   1  37
TORSDOF 26
REMARK  Name = ../refined-set-2016/4zb6/4zb6_pocket.pdb
REMARK  231 active torsions:
REMARK  status: ('A' for Active; 'I' for Inactive)
REMARK    1  A    between atoms: _1  and  _3
REMARK    2  A    between atoms: _3  and  _4
REMARK    3  A    between atoms: _3  and  _6
REMARK    4  A    between atoms: _6  and  _7
REMARK    5  A    between atoms: _10  and  _12
REMARK    6  A    between atoms: _12  and  _13
REMARK    7  A    between atoms: _12  and  _15
REMARK    8  A    between atoms: _15  and  _16
REMARK    9  A    between atoms: _21  and  _23
REMARK   10  A    between atoms: _23  and  _24
REMARK   11  A    between atoms: _23  and  _26
REMARK   12  A    between atoms: _26  and  _27
REMARK   13  A    between atoms: _29  and  _31
REMARK   14  A    between atoms: _31  and  _32
REMARK   15  A    between atoms: _35  and  _36
REMARK   16  A    between atoms: _41  and  _43
REMARK   17  A    between atoms: _43  and  _44
REMARK   18  A    between atoms: _43  and  _46
REMARK   19  A    between atoms: _46  and  _47
REMARK   20  A    between atoms: _52  and  _54
REMARK   21  A    between atoms: _54  and  _55
REMARK   22  A    between atoms: _57  and  _59
REMARK   23  A    between atoms: _59  and  _60
REMARK   24  A    between atoms: _59  and  _62
REMARK   25  A    between atoms: _62  and  _63
REMARK   26  A    between atoms: _73  and  _75
REMARK   27  A    between atoms: _75  and  _76
REMARK   28  A    between atoms: _75  and  _78
REMARK   29  A    between atoms: _78  and  _79
REMARK   30  A    between atoms: _79  and  _80
REMARK   31  A    between atoms: _80  and  _81
REMARK   32  A    between atoms: _81  and  _82
REMARK   33  A    between atoms: _86  and  _88
REMARK   34  A    between atoms: _88  and  _89
REMARK   35  A    between atoms: _88  and  _91
REMARK   36  A    between atoms: _94  and  _96
REMARK   37  A    between atoms: _96  and  _97
REMARK   38  A    between atoms: _96  and  _99
REMARK   39  A    between atoms: _99  and  _100
REMARK   40  A    between atoms: _103  and  _105
REMARK   41  A    between atoms: _105  and  _106
REMARK   42  A    between atoms: _105  and  _108
REMARK   43  A    between atoms: _108  and  _109
REMARK   44  A    between atoms: _112  and  _114
REMARK   45  A    between atoms: _114  and  _115
REMARK   46  A    between atoms: _114  and  _117
REMARK   47  A    between atoms: _117  and  _118
REMARK   48  A    between atoms: _118  and  _119
REMARK   49  A    between atoms: _121  and  _123
REMARK   50  A    between atoms: _123  and  _124
REMARK   51  A    between atoms: _126  and  _128
REMARK   52  A    between atoms: _128  and  _129
REMARK   53  A    between atoms: _128  and  _131
REMARK   54  A    between atoms: _131  and  _132
REMARK   55  A    between atoms: _137  and  _139
REMARK   56  A    between atoms: _139  and  _140
REMARK   57  A    between atoms: _139  and  _142
REMARK   58  A    between atoms: _142  and  _143
REMARK   59  A    between atoms: _143  and  _144
REMARK   60  A    between atoms: _144  and  _145
REMARK   61  A    between atoms: _145  and  _146
REMARK   62  A    between atoms: _150  and  _152
REMARK   63  A    between atoms: _152  and  _153
REMARK   64  A    between atoms: _152  and  _155
REMARK   65  A    between atoms: _155  and  _156
REMARK   66  A    between atoms: _161  and  _162
REMARK   67  A    between atoms: _164  and  _166
REMARK   68  A    between atoms: _166  and  _167
REMARK   69  A    between atoms: _166  and  _169
REMARK   70  A    between atoms: _169  and  _170
REMARK   71  A    between atoms: _175  and  _177
REMARK   72  A    between atoms: _177  and  _178
REMARK   73  A    between atoms: _177  and  _180
REMARK   74  A    between atoms: _180  and  _181
REMARK   75  A    between atoms: _186  and  _188
REMARK   76  A    between atoms: _188  and  _189
REMARK   77  A    between atoms: _191  and  _193
REMARK   78  A    between atoms: _193  and  _194
REMARK   79  A    between atoms: _193  and  _196
REMARK   80  A    between atoms: _196  and  _197
REMARK   81  A    between atoms: _197  and  _198
REMARK   82  A    between atoms: _198  and  _199
REMARK   83  A    between atoms: _208  and  _210
REMARK   84  A    between atoms: _210  and  _211
REMARK   85  A    between atoms: _210  and  _213
REMARK   86  A    between atoms: _217  and  _218
REMARK   87  A    between atoms: _223  and  _225
REMARK   88  A    between atoms: _225  and  _226
REMARK   89  A    between atoms: _229  and  _231
REMARK   90  A    between atoms: _231  and  _232
REMARK   91  A    between atoms: _231  and  _234
REMARK   92  A    between atoms: _234  and  _235
REMARK   93  A    between atoms: _245  and  _247
REMARK   94  A    between atoms: _247  and  _248
REMARK   95  A    between atoms: _247  and  _250
REMARK   96  A    between atoms: _250  and  _251
REMARK   97  A    between atoms: _251  and  _252
REMARK   98  A    between atoms: _255  and  _257
REMARK   99  A    between atoms: _257  and  _258
REMARK  100  A    between atoms: _257  and  _260
REMARK  101  A    between atoms: _260  and  _261
REMARK  102  A    between atoms: _263  and  _265
REMARK  103  A    between atoms: _265  and  _266
REMARK  104  A    between atoms: _265  and  _268
REMARK  105  A    between atoms: _268  and  _269
REMARK  106  A    between atoms: _274  and  _276
REMARK  107  A    between atoms: _276  and  _277
REMARK  108  A    between atoms: _280  and  _282
REMARK  109  A    between atoms: _282  and  _283
REMARK  110  A    between atoms: _282  and  _285
REMARK  111  A    between atoms: _288  and  _290
REMARK  112  A    between atoms: _290  and  _291
REMARK  113  A    between atoms: _290  and  _293
REMARK  114  A    between atoms: _293  and  _294
REMARK  115  A    between atoms: _297  and  _299
REMARK  116  A    between atoms: _299  and  _300
REMARK  117  A    between atoms: _299  and  _302
REMARK  118  A    between atoms: _302  and  _303
REMARK  119  A    between atoms: _303  and  _304
REMARK  120  A    between atoms: _309  and  _311
REMARK  121  A    between atoms: _311  and  _312
REMARK  122  A    between atoms: _315  and  _317
REMARK  123  A    between atoms: _317  and  _318
REMARK  124  A    between atoms: _317  and  _320
REMARK  125  A    between atoms: _320  and  _321
REMARK  126  A    between atoms: _323  and  _325
REMARK  127  A    between atoms: _325  and  _326
REMARK  128  A    between atoms: _328  and  _330
REMARK  129  A    between atoms: _330  and  _331
REMARK  130  A    between atoms: _330  and  _333
REMARK  131  A    between atoms: _333  and  _334
REMARK  132  A    between atoms: _334  and  _335
REMARK  133  A    between atoms: _340  and  _342
REMARK  134  A    between atoms: _342  and  _343
REMARK  135  A    between atoms: _346  and  _347
REMARK  136  A    between atoms: _352  and  _354
REMARK  137  A    between atoms: _354  and  _355
REMARK  138  A    between atoms: _354  and  _357
REMARK  139  A    between atoms: _357  and  _358
REMARK  140  A    between atoms: _363  and  _364
REMARK  141  A    between atoms: _366  and  _368
REMARK  142  A    between atoms: _368  and  _369
REMARK  143  A    between atoms: _368  and  _371
REMARK  144  A    between atoms: _371  and  _372
REMARK  145  A    between atoms: _377  and  _378
REMARK  146  A    between atoms: _380  and  _382
REMARK  147  A    between atoms: _382  and  _383
REMARK  148  A    between atoms: _385  and  _387
REMARK  149  A    between atoms: _387  and  _388
REMARK  150  A    between atoms: _387  and  _390
REMARK  151  A    between atoms: _390  and  _391
REMARK  152  A    between atoms: _391  and  _392
REMARK  153  A    between atoms: _397  and  _399
REMARK  154  A    between atoms: _399  and  _400
REMARK  155  A    between atoms: _403  and  _405
REMARK  156  A    between atoms: _405  and  _406
REMARK  157  A    between atoms: _409  and  _411
REMARK  158  A    between atoms: _411  and  _412
REMARK  159  A    between atoms: _411  and  _414
REMARK  160  A    between atoms: _414  and  _415
REMARK  161  A    between atoms: _425  and  _427
REMARK  162  A    between atoms: _427  and  _428
REMARK  163  A    between atoms: _427  and  _430
REMARK  164  A    between atoms: _430  and  _431
REMARK  165  A    between atoms: _437  and  _439
REMARK  166  A    between atoms: _439  and  _440
REMARK  167  A    between atoms: _439  and  _442
REMARK  168  A    between atoms: _442  and  _443
REMARK  169  A    between atoms: _448  and  _449
REMARK  170  A    between atoms: _451  and  _453
REMARK  171  A    between atoms: _453  and  _454
REMARK  172  A    between atoms: _453  and  _456
REMARK  173  A    between atoms: _456  and  _457
REMARK  174  A    between atoms: _460  and  _462
REMARK  175  A    between atoms: _462  and  _463
REMARK  176  A    between atoms: _462  and  _465
REMARK  177  A    between atoms: _465  and  _466
REMARK  178  A    between atoms: _476  and  _478
REMARK  179  A    between atoms: _478  and  _479
REMARK  180  A    between atoms: _478  and  _481
REMARK  181  A    between atoms: _481  and  _482
REMARK  182  A    between atoms: _485  and  _487
REMARK  183  A    between atoms: _487  and  _488
REMARK  184  A    between atoms: _487  and  _490
REMARK  185  A    between atoms: _490  and  _491
REMARK  186  A    between atoms: _496  and  _497
REMARK  187  A    between atoms: _499  and  _501
REMARK  188  A    between atoms: _501  and  _502
REMARK  189  A    between atoms: _501  and  _504
REMARK  190  A    between atoms: _504  and  _505
REMARK  191  A    between atoms: _511  and  _513
REMARK  192  A    between atoms: _513  and  _514
REMARK  193  A    between atoms: _517  and  _519
REMARK  194  A    between atoms: _519  and  _520
REMARK  195  A    between atoms: _519  and  _522
REMARK  196  A    between atoms: _522  and  _523
REMARK  197  A    between atoms: _525  and  _527
REMARK  198  A    between atoms: _527  and  _528
REMARK  199  A    between atoms: _530  and  _532
REMARK  200  A    between atoms: _532  and  _533
REMARK  201  A    between atoms: _532  and  _535
REMARK  202  A    between atoms: _535  and  _536
REMARK  203  A    between atoms: _536  and  _537
REMARK  204  A    between atoms: _543  and  _544
REMARK  205  A    between atoms: _549  and  _551
REMARK  206  A    between atoms: _551  and  _552
REMARK  207  A    between atoms: _551  and  _554
REMARK  208  A    between atoms: _554  and  _555
REMARK  209  A    between atoms: _560  and  _561
REMARK  210  A    between atoms: _563  and  _565
REMARK  211  A    between atoms: _565  and  _566
REMARK  212  A    between atoms: _565  and  _568
REMARK  213  A    between atoms: _568  and  _569
REMARK  214  A    between atoms: _569  and  _570
REMARK  215  A    between atoms: _570  and  _571
REMARK  216  A    between atoms: _580  and  _582
REMARK  217  A    between atoms: _582  and  _583
REMARK  218  A    between atoms: _582  and  _585
REMARK  219  A    between atoms: _585  and  _586
REMARK  220  A    between atoms: _591  and  _592
REMARK  221  A    between atoms: _594  and  _596
REMARK  222  A    between atoms: _596  and  _597
REMARK  223  A    between atoms: _596  and  _599
REMARK  224  A    between atoms: _599  and  _600
REMARK  225  A    between atoms: _600  and  _601
REMARK  226  A    between atoms: _604  and  _606
REMARK  227  A    between atoms: _606  and  _607
REMARK  228  A    between atoms: _606  and  _609
REMARK  229  A    between atoms: _609  and  _610
REMARK  230  A    between atoms: _610  and  _611
REMARK  231  A    between atoms: _611  and  _612
REMARK                            x       y       z     vdW  Elec       q    Type
REMARK                         _______ _______ _______ _____ _____    ______ ____
ROOT
ATOM      1  C   TYR A   8      15.301   4.792  13.436  0.00  0.00    +0.241 C 
ATOM      2  O   TYR A   8      14.605   3.776  13.390  0.00  0.00    -0.273 OA
ATOM      3  N   TYR A   9      15.625   5.492  12.348  0.00  0.00    -0.297 N 
ATOM      4  H   TYR A   9      16.162   6.377  12.448  0.00  0.00    +0.150 HD
ENDROOT
BRANCH   3   5
ATOM      5  CA  TYR A   9      15.235   5.031  11.017  0.00  0.00    +0.153 C 
BRANCH   5   6
ATOM      6  C   TYR A   9      15.896   3.682  10.784  0.00  0.00    +0.241 C 
ATOM      7  N   GLY A  10      17.133   3.561  11.258  0.00  0.00    -0.295 N 
ATOM      8  H   GLY A  10      17.576   4.378  11.724  0.00  0.00    +0.150 HD
ATOM      9  O   TYR A   9      15.309   2.779  10.183  0.00  0.00    -0.273 OA
BRANCH   7  10
ATOM     10  CA  GLY A  10      17.884   2.321  11.144  0.00  0.00    +0.176 C 
BRANCH  10  11
ATOM     11  C   GLY A  10      17.231   1.150  11.855  0.00  0.00    +0.243 C 
ATOM     12  N   GLN A  11      16.528   1.420  12.951  0.00  0.00    -0.297 N 
ATOM     13  H   GLN A  11      16.468   2.396  13.305  0.00  0.00    +0.150 HD
ATOM     14  O   GLY A  10      17.358   0.007  11.417  0.00  0.00    -0.273 OA
BRANCH  12  15
ATOM     15  CA  GLN A  11      15.838   0.339  13.658  0.00  0.00    +0.149 C 
BRANCH  15  16
ATOM     16  C   GLN A  11      14.588  -0.074  12.896  0.00  0.00    +0.241 C 
ATOM     17  O   GLN A  11      14.214  -1.247  12.898  0.00  0.00    -0.273 OA
ATOM     18  N   ALA A  12      13.946   0.889  12.240  0.00  0.00    -0.297 N 
ATOM     19  H   ALA A  12      14.233   1.880  12.371  0.00  0.00    +0.150 HD
BRANCH  18  20
ATOM     20  CA  ALA A  12      12.844   0.570  11.339  0.00  0.00    +0.149 C 
ATOM     21  CB  ALA A  12      12.252   1.841  10.736  0.00  0.00    +0.031 C 
BRANCH  20  22
ATOM     22  C   ALA A  12      13.346  -0.355  10.240  0.00  0.00    +0.241 C 
ATOM     23  O   ALA A  12      12.709  -1.356   9.922  0.00  0.00    -0.273 OA
ATOM     24  N   ALA A  13      14.498  -0.015   9.670  0.00  0.00    -0.297 N 
ATOM     25  H   ALA A  13      14.969   0.865   9.961  0.00  0.00    +0.150 HD
BRANCH  24  26
ATOM     26  CA  ALA A  13      15.114  -0.847   8.648  0.00  0.00    +0.149 C 
ATOM     27  CB  ALA A  13      16.394  -0.202   8.122  0.00  0.00    +0.031 C 
BRANCH  26  28
ATOM     28  C   ALA A  13      15.395  -2.244   9.181  0.00  0.00    +0.241 C 
ATOM     29  N   TRP A  14      16.024  -2.323  10.350  0.00  0.00    -0.297 N 
ATOM     30  H   TRP A  14      16.279  -1.453  10.860  0.00  0.00    +0.150 HD
ATOM     31  O   ALA A  13      15.038  -3.235   8.547  0.00  0.00    -0.273 OA
BRANCH  29  32
ATOM     32  CA  TRP A  14      16.359  -3.626  10.922  0.00  0.00    +0.153 C 
BRANCH  32  33
ATOM     33  C   TRP A  14      15.149  -4.540  11.096  0.00  0.00    +0.241 C 
ATOM     34  N   PHE A  15      14.135  -4.058  11.805  0.00  0.00    -0.298 N 
ATOM     35  H   PHE A  15      14.167  -3.078  12.150  0.00  0.00    +0.150 HD
ATOM     36  O   TRP A  14      15.134  -5.664  10.592  0.00  0.00    -0.273 OA
BRANCH  34  37
ATOM     37  CA  PHE A  15      12.974  -4.894  12.104  0.00  0.00    +0.141 C 
BRANCH  37  38
ATOM     38  C   PHE A  15      12.131  -5.195  10.868  0.00  0.00    +0.227 C 
ATOM     39  O   PHE A  15      11.506  -6.251  10.782  0.00  0.00    -0.286 OA
ENDBRANCH  37  38
BRANCH  37  40
ATOM     40  CB  PHE A  15      12.126  -4.284  13.224  0.00  0.00    +0.054 C 
BRANCH  40  41
ATOM     41  CG  PHE A  15      12.741  -4.432  14.589  0.00  0.00    -0.020 A 
ATOM     42  CD2 PHE A  15      13.310  -3.345  15.232  0.00  0.00    -0.004 A 
ATOM     43  CE2 PHE A  15      13.880  -3.482  16.486  0.00  0.00    -0.000 A 
ATOM     44  CZ  PHE A  15      13.888  -4.720  17.111  0.00  0.00    -0.000 A 
ATOM     45  CE1 PHE A  15      13.327  -5.811  16.478  0.00  0.00    -0.000 A 
ATOM     46  CD1 PHE A  15      12.758  -5.667  15.224  0.00  0.00    -0.004 A 
ENDBRANCH  40  41
ENDBRANCH  37  40
ENDBRANCH  34  37
ENDBRANCH  32  33
BRANCH  32  47
ATOM     47  CB  TRP A  14      17.087  -3.501  12.259  0.00  0.00    +0.057 C 
BRANCH  47  48
ATOM     48  CG  TRP A  14      17.485  -4.844  12.740  0.00  0.00    -0.002 A 
ATOM     49  CD1 TRP A  14      16.832  -5.615  13.656  0.00  0.00    +0.068 A 
ATOM     50  NE1 TRP A  14      17.484  -6.816  13.812  0.00  0.00    -0.352 N 
ATOM     51  HE1 TRP A  14      17.199  -7.580  14.458  0.00  0.00    +0.166 HD
ATOM     52  CE2 TRP A  14      18.570  -6.841  12.977  0.00  0.00    +0.056 A 
ATOM     53  CZ2 TRP A  14      19.531  -7.835  12.780  0.00  0.00    +0.017 A 
ATOM     54  CH2 TRP A  14      20.523  -7.585  11.865  0.00  0.00    +0.001 A 
ATOM     55  CZ3 TRP A  14      20.578  -6.376  11.156  0.00  0.00    +0.000 A 
ATOM     56  CE3 TRP A  14      19.623  -5.387  11.354  0.00  0.00    +0.001 A 
ATOM     57  CD2 TRP A  14      18.598  -5.617  12.281  0.00  0.00    +0.013 A 
ENDBRANCH  47  48
ENDBRANCH  32  47
ENDBRANCH  29  32
ENDBRANCH  26  28
ENDBRANCH  24  26
ENDBRANCH  20  22
ENDBRANCH  18  20
ENDBRANCH  15  16
BRANCH  15  58
ATOM     58  CB  GLN A  11      15.487   0.730  15.095  0.00  0.00    +0.039 C 
BRANCH  58  59
ATOM     59  CG  GLN A  11      16.684   1.130  15.946  0.00  0.00    +0.087 C 
BRANCH  59  60
ATOM     60  CD  GLN A  11      17.924   0.314  15.636  0.00  0.00    +0.219 C 
ATOM     61  OE1 GLN A  11      18.019  -0.858  15.999  0.00  0.00    -0.275 OA
ATOM     62  NE2 GLN A  11      18.886   0.935  14.962  0.00  0.00    -0.329 N 
ATOM     63 HE21 GLN A  11      19.762   0.429  14.721  0.00  0.00    +0.145 HD
ATOM     64 HE22 GLN A  11      18.763   1.927  14.675  0.00  0.00    +0.145 HD
ENDBRANCH  59  60
ENDBRANCH  58  59
ENDBRANCH  15  58
ENDBRANCH  12  15
ENDBRANCH  10  11
ENDBRANCH   7  10
ENDBRANCH   5   6
BRANCH   5  65
ATOM     65  CB  TYR A   9      15.731   5.986   9.929  0.00  0.00    +0.055 C 
BRANCH  65  66
ATOM     66  CG  TYR A   9      14.967   7.284   9.719  0.00  0.00    -0.020 A 
ATOM     67  CD2 TYR A   9      14.416   7.995  10.780  0.00  0.00    -0.001 A 
ATOM     68  CE2 TYR A   9      13.743   9.197  10.564  0.00  0.00    +0.036 A 
ATOM     69  CZ  TYR A   9      13.628   9.691   9.277  0.00  0.00    +0.134 A 
ATOM     70  CE1 TYR A   9      14.170   8.998   8.213  0.00  0.00    +0.036 A 
ATOM     71  CD1 TYR A   9      14.833   7.810   8.440  0.00  0.00    -0.001 A 
BRANCH  69  72
ATOM     72  OH  TYR A   9      12.963  10.876   9.039  0.00  0.00    -0.506 OA
ATOM     73  HH  TYR A   9      12.979  11.073   8.069  0.00  0.00    +0.292 HD
ENDBRANCH  69  72
ENDBRANCH  65  66
ENDBRANCH   5  65
ENDBRANCH   3   5
BRANCH   1  74
ATOM     74  CA  TYR A   8      15.841   5.290  14.781  0.00  0.00    +0.153 C 
BRANCH  74  76
ATOM     75  C   PRO A   7      18.194   4.782  14.575  0.00  0.00    +0.241 C 
ATOM     76  N   TYR A   8      17.239   5.699  14.691  0.00  0.00    -0.297 N 
ATOM     77  H   TYR A   8      17.488   6.708  14.718  0.00  0.00    +0.150 HD
ATOM     78  O   PRO A   7      17.960   3.577  14.522  0.00  0.00    -0.273 OA
BRANCH  75  81
ATOM     79  C   GLY A   6      19.528   6.472  12.401  0.00  0.00    +0.246 C 
ATOM     80  N   PRO A   7      19.791   6.493  13.715  0.00  0.00    -0.272 N 
ATOM     81  CA  PRO A   7      19.640   5.264  14.501  0.00  0.00    +0.152 C 
ATOM     82  CB  PRO A   7      20.140   5.675  15.890  0.00  0.00    +0.031 C 
ATOM     83  CG  PRO A   7      21.074   6.803  15.629  0.00  0.00    +0.024 C 
ATOM     84  CD  PRO A   7      20.431   7.560  14.497  0.00  0.00    +0.094 C 
ATOM     85  O   GLY A   6      19.102   5.464  11.827  0.00  0.00    -0.273 OA
BRANCH  79  86
ATOM     86  CA  GLY A   6      19.796   7.746  11.614  0.00  0.00    +0.176 C 
BRANCH  86  89
ATOM     87  C   GLN A   5      17.765   8.960  12.238  0.00  0.00    +0.241 C 
ATOM     88  O   GLN A   5      17.076   7.942  12.253  0.00  0.00    -0.273 OA
ATOM     89  N   GLY A   6      19.075   8.947  12.011  0.00  0.00    -0.295 N 
ATOM     90  H   GLY A   6      19.608   9.833  12.122  0.00  0.00    +0.150 HD
BRANCH  87  91
ATOM     91  CA  GLN A   5      17.140  10.333  12.499  0.00  0.00    +0.149 C 
BRANCH  91  94
ATOM     92  C   GLY A   4      17.002  10.695  14.881  0.00  0.00    +0.243 C 
ATOM     93  O   GLY A   4      15.959  10.050  14.938  0.00  0.00    -0.273 OA
ATOM     94  N   GLN A   5      17.633  10.925  13.736  0.00  0.00    -0.297 N 
ATOM     95  H   GLN A   5      18.480  11.528  13.722  0.00  0.00    +0.150 HD
BRANCH  92  96
ATOM     96  CA  GLY A   4      17.623  11.271  16.138  0.00  0.00    +0.176 C 
BRANCH  96  99
ATOM     97  C   SER A   3      19.762  10.411  16.902  0.00  0.00    +0.243 C 
ATOM     98  O   SER A   3      19.228   9.552  17.612  0.00  0.00    -0.273 OA
ATOM     99  N   GLY A   4      19.075  11.243  16.124  0.00  0.00    -0.295 N 
ATOM    100  H   GLY A   4      19.589  11.888  15.491  0.00  0.00    +0.150 HD
BRANCH  97 101
ATOM    101  CA  SER A   3      21.279  10.567  16.887  0.00  0.00    +0.178 C 
BRANCH 101 103
ATOM    102  C   ALA A   2      22.510  10.649  14.795  0.00  0.00    +0.241 C 
ATOM    103  N   SER A   3      21.767  11.277  15.705  0.00  0.00    -0.295 N 
ATOM    104  H   SER A   3      21.532  12.282  15.574  0.00  0.00    +0.150 HD
ATOM    105  O   ALA A   2      22.738   9.440  14.838  0.00  0.00    -0.273 OA
BRANCH 102 106
ATOM    106  CA  ALA A   2      23.104  11.490  13.672  0.00  0.00    +0.149 C 
ATOM    107  CB  ALA A   2      24.525  11.900  14.019  0.00  0.00    +0.031 C 
BRANCH 106 109
ATOM    108  C   GLN A   1      21.136  12.515  12.684  0.00  0.00    +0.238 C 
ATOM    109  N   ALA A   2      22.308  12.651  13.297  0.00  0.00    -0.297 N 
ATOM    110  H   ALA A   2      22.663  13.604  13.513  0.00  0.00    +0.150 HD
ATOM    111  O   GLN A   1      20.582  11.425  12.525  0.00  0.00    -0.274 OA
BRANCH 108 112
ATOM    112  CA  GLN A   1      20.482  13.798  12.196  0.00  0.00    +0.145 C 
BRANCH 112 113
ATOM    113  N   GLN A   1      20.433  14.762  13.287  0.00  0.00    -0.238 NA
ATOM    114  H   GLN A   1      20.950  15.661  13.209  0.00  0.00    +0.142 HD
ENDBRANCH 112 113
BRANCH 112 115
ATOM    115  CB  GLN A   1      21.230  14.371  10.989  0.00  0.00    +0.036 C 
BRANCH 115 116
ATOM    116  CG  GLN A   1      21.138  13.509   9.717  0.00  0.00    +0.087 C 
BRANCH 116 117
ATOM    117  CD  GLN A   1      22.069  12.310   9.748  0.00  0.00    +0.219 C 
ATOM    118  OE1 GLN A   1      23.251  12.440  10.058  0.00  0.00    -0.275 OA
ATOM    119  NE2 GLN A   1      21.534  11.132   9.440  0.00  0.00    -0.329 N 
ATOM    120 HE21 GLN A   1      22.121  10.274   9.456  0.00  0.00    +0.145 HD
ATOM    121 HE22 GLN A   1      20.528  11.069   9.183  0.00  0.00    +0.145 HD
ENDBRANCH 116 117
ENDBRANCH 115 116
ENDBRANCH 112 115
ENDBRANCH 108 112
ENDBRANCH 106 109
ENDBRANCH 102 106
ENDBRANCH 101 103
BRANCH 101 122
ATOM    122  CB  SER A   3      21.737  11.273  18.171  0.00  0.00    +0.166 C 
BRANCH 122 123
ATOM    123  OG  SER A   3      21.011  12.471  18.401  0.00  0.00    -0.380 OA
ATOM    124  H   SER A   3      21.147  13.089  17.640  0.00  0.00    +0.211 HD
ENDBRANCH 122 123
ENDBRANCH 101 122
ENDBRANCH  97 101
ENDBRANCH  96  99
ENDBRANCH  92  96
ENDBRANCH  91  94
BRANCH  91 125
ATOM    125  CB  GLN A   5      17.395  11.258  11.307  0.00  0.00    +0.039 C 
BRANCH 125 126
ATOM    126  CG  GLN A   5      16.880  10.686   9.990  0.00  0.00    +0.087 C 
BRANCH 126 127
ATOM    127  CD  GLN A   5      17.522  11.319   8.776  0.00  0.00    +0.219 C 
ATOM    128  OE1 GLN A   5      18.740  11.499   8.726  0.00  0.00    -0.275 OA
ATOM    129  NE2 GLN A   5      16.704  11.657   7.781  0.00  0.00    -0.329 N 
ATOM    130 HE21 GLN A   5      15.682  11.486   7.867  0.00  0.00    +0.145 HD
ATOM    131 HE22 GLN A   5      17.087  12.092   6.918  0.00  0.00    +0.145 HD
ENDBRANCH 126 127
ENDBRANCH 125 126
ENDBRANCH  91 125
ENDBRANCH  87  91
ENDBRANCH  86  89
ENDBRANCH  79  86
ENDBRANCH  75  81
ENDBRANCH  74  76
BRANCH  74 132
ATOM    132  CB  TYR A   8      14.969   6.408  15.350  0.00  0.00    +0.055 C 
BRANCH 132 133
ATOM    133  CG  TYR A   8      15.197   6.687  16.823  0.00  0.00    -0.020 A 
ATOM    134  CD2 TYR A   8      14.431   6.057  17.796  0.00  0.00    -0.001 A 
ATOM    135  CE2 TYR A   8      14.626   6.317  19.144  0.00  0.00    +0.036 A 
ATOM    136  CZ  TYR A   8      15.601   7.221  19.531  0.00  0.00    +0.134 A 
ATOM    137  CE1 TYR A   8      16.375   7.855  18.582  0.00  0.00    +0.036 A 
ATOM    138  CD1 TYR A   8      16.168   7.589  17.238  0.00  0.00    -0.001 A 
BRANCH 136 139
ATOM    139  OH  TYR A   8      15.803   7.483  20.870  0.00  0.00    -0.506 OA
ATOM    140  HH  TYR A   8      16.053   6.645  21.335  0.00  0.00    +0.292 HD
ENDBRANCH 136 139
ENDBRANCH 132 133
ENDBRANCH  74 132
ENDBRANCH   1  74
TORSDOF 50
REMARK  Name = ../refined-set-2016/4zb6/4zb6_pocket.pdb
REMARK  231 active torsions:
REMARK  status: ('A' for Active; 'I' for Inactive)
REMARK    1  A    between atoms: _1  and  _3
REMARK    2  A    between atoms: _3  and  _4
REMARK    3  A    between atoms: _3  and  _6
REMARK    4  A    between atoms: _6  and  _7
REMARK    5  A    between atoms: _10  and  _12
REMARK    6  A    between atoms: _12  and  _13
REMARK    7  A    between atoms: _12  and  _15
REMARK    8  A    between atoms: _15  and  _16
REMARK    9  A    between atoms: _21  and  _23
REMARK   10  A    between atoms: _23  and  _24
REMARK   11  A    between atoms: _23  and  _26
REMARK   12  A    between atoms: _26  and  _27
REMARK   13  A    between atoms: _29  and  _31
REMARK   14  A    between atoms: _31  and  _32
REMARK   15  A    between atoms: _35  and  _36
REMARK   16  A    between atoms: _41  and  _43
REMARK   17  A    between atoms: _43  and  _44
REMARK   18  A    between atoms: _43  and  _46
REMARK   19  A    between atoms: _46  and  _47
REMARK   20  A    between atoms: _52  and  _54
REMARK   21  A    between atoms: _54  and  _55
REMARK   22  A    between atoms: _57  and  _59
REMARK   23  A    between atoms: _59  and  _60
REMARK   24  A    between atoms: _59  and  _62
REMARK   25  A    between atoms: _62  and  _63
REMARK   26  A    between atoms: _73  and  _75
REMARK   27  A    between atoms: _75  and  _76
REMARK   28  A    between atoms: _75  and  _78
REMARK   29  A    between atoms: _78  and  _79
REMARK   30  A    between atoms: _79  and  _80
REMARK   31  A    between atoms: _80  and  _81
REMARK   32  A    between atoms: _81  and  _82
REMARK   33  A    between atoms: _86  and  _88
REMARK   34  A    between atoms: _88  and  _89
REMARK   35  A    between atoms: _88  and  _91
REMARK   36  A    between atoms: _94  and  _96
REMARK   37  A    between atoms: _96  and  _97
REMARK   38  A    between atoms: _96  and  _99
REMARK   39  A    between atoms: _99  and  _100
REMARK   40  A    between atoms: _103  and  _105
REMARK   41  A    between atoms: _105  and  _106
REMARK   42  A    between atoms: _105  and  _108
REMARK   43  A    between atoms: _108  and  _109
REMARK   44  A    between atoms: _112  and  _114
REMARK   45  A    between atoms: _114  and  _115
REMARK   46  A    between atoms: _114  and  _117
REMARK   47  A    between atoms: _117  and  _118
REMARK   48  A    between atoms: _118  and  _119
REMARK   49  A    between atoms: _121  and  _123
REMARK   50  A    between atoms: _123  and  _124
REMARK   51  A    between atoms: _126  and  _128
REMARK   52  A    between atoms: _128  and  _129
REMARK   53  A    between atoms: _128  and  _131
REMARK   54  A    between atoms: _131  and  _132
REMARK   55  A    between atoms: _137  and  _139
REMARK   56  A    between atoms: _139  and  _140
REMARK   57  A    between atoms: _139  and  _142
REMARK   58  A    between atoms: _142  and  _143
REMARK   59  A    between atoms: _143  and  _144
REMARK   60  A    between atoms: _144  and  _145
REMARK   61  A    between atoms: _145  and  _146
REMARK   62  A    between atoms: _150  and  _152
REMARK   63  A    between atoms: _152  and  _153
REMARK   64  A    between atoms: _152  and  _155
REMARK   65  A    between atoms: _155  and  _156
REMARK   66  A    between atoms: _161  and  _162
REMARK   67  A    between atoms: _164  and  _166
REMARK   68  A    between atoms: _166  and  _167
REMARK   69  A    between atoms: _166  and  _169
REMARK   70  A    between atoms: _169  and  _170
REMARK   71  A    between atoms: _175  and  _177
REMARK   72  A    between atoms: _177  and  _178
REMARK   73  A    between atoms: _177  and  _180
REMARK   74  A    between atoms: _180  and  _181
REMARK   75  A    between atoms: _186  and  _188
REMARK   76  A    between atoms: _188  and  _189
REMARK   77  A    between atoms: _191  and  _193
REMARK   78  A    between atoms: _193  and  _194
REMARK   79  A    between atoms: _193  and  _196
REMARK   80  A    between atoms: _196  and  _197
REMARK   81  A    between atoms: _197  and  _198
REMARK   82  A    between atoms: _198  and  _199
REMARK   83  A    between atoms: _208  and  _210
REMARK   84  A    between atoms: _210  and  _211
REMARK   85  A    between atoms: _210  and  _213
REMARK   86  A    between atoms: _217  and  _218
REMARK   87  A    between atoms: _223  and  _225
REMARK   88  A    between atoms: _225  and  _226
REMARK   89  A    between atoms: _229  and  _231
REMARK   90  A    between atoms: _231  and  _232
REMARK   91  A    between atoms: _231  and  _234
REMARK   92  A    between atoms: _234  and  _235
REMARK   93  A    between atoms: _245  and  _247
REMARK   94  A    between atoms: _247  and  _248
REMARK   95  A    between atoms: _247  and  _250
REMARK   96  A    between atoms: _250  and  _251
REMARK   97  A    between atoms: _251  and  _252
REMARK   98  A    between atoms: _255  and  _257
REMARK   99  A    between atoms: _257  and  _258
REMARK  100  A    between atoms: _257  and  _260
REMARK  101  A    between atoms: _260  and  _261
REMARK  102  A    between atoms: _263  and  _265
REMARK  103  A    between atoms: _265  and  _266
REMARK  104  A    between atoms: _265  and  _268
REMARK  105  A    between atoms: _268  and  _269
REMARK  106  A    between atoms: _274  and  _276
REMARK  107  A    between atoms: _276  and  _277
REMARK  108  A    between atoms: _280  and  _282
REMARK  109  A    between atoms: _282  and  _283
REMARK  110  A    between atoms: _282  and  _285
REMARK  111  A    between atoms: _288  and  _290
REMARK  112  A    between atoms: _290  and  _291
REMARK  113  A    between atoms: _290  and  _293
REMARK  114  A    between atoms: _293  and  _294
REMARK  115  A    between atoms: _297  and  _299
REMARK  116  A    between atoms: _299  and  _300
REMARK  117  A    between atoms: _299  and  _302
REMARK  118  A    between atoms: _302  and  _303
REMARK  119  A    between atoms: _303  and  _304
REMARK  120  A    between atoms: _309  and  _311
REMARK  121  A    between atoms: _311  and  _312
REMARK  122  A    between atoms: _315  and  _317
REMARK  123  A    between atoms: _317  and  _318
REMARK  124  A    between atoms: _317  and  _320
REMARK  125  A    between atoms: _320  and  _321
REMARK  126  A    between atoms: _323  and  _325
REMARK  127  A    between atoms: _325  and  _326
REMARK  128  A    between atoms: _328  and  _330
REMARK  129  A    between atoms: _330  and  _331
REMARK  130  A    between atoms: _330  and  _333
REMARK  131  A    between atoms: _333  and  _334
REMARK  132  A    between atoms: _334  and  _335
REMARK  133  A    between atoms: _340  and  _342
REMARK  134  A    between atoms: _342  and  _343
REMARK  135  A    between atoms: _346  and  _347
REMARK  136  A    between atoms: _352  and  _354
REMARK  137  A    between atoms: _354  and  _355
REMARK  138  A    between atoms: _354  and  _357
REMARK  139  A    between atoms: _357  and  _358
REMARK  140  A    between atoms: _363  and  _364
REMARK  141  A    between atoms: _366  and  _368
REMARK  142  A    between atoms: _368  and  _369
REMARK  143  A    between atoms: _368  and  _371
REMARK  144  A    between atoms: _371  and  _372
REMARK  145  A    between atoms: _377  and  _378
REMARK  146  A    between atoms: _380  and  _382
REMARK  147  A    between atoms: _382  and  _383
REMARK  148  A    between atoms: _385  and  _387
REMARK  149  A    between atoms: _387  and  _388
REMARK  150  A    between atoms: _387  and  _390
REMARK  151  A    between atoms: _390  and  _391
REMARK  152  A    between atoms: _391  and  _392
REMARK  153  A    between atoms: _397  and  _399
REMARK  154  A    between atoms: _399  and  _400
REMARK  155  A    between atoms: _403  and  _405
REMARK  156  A    between atoms: _405  and  _406
REMARK  157  A    between atoms: _409  and  _411
REMARK  158  A    between atoms: _411  and  _412
REMARK  159  A    between atoms: _411  and  _414
REMARK  160  A    between atoms: _414  and  _415
REMARK  161  A    between atoms: _425  and  _427
REMARK  162  A    between atoms: _427  and  _428
REMARK  163  A    between atoms: _427  and  _430
REMARK  164  A    between atoms: _430  and  _431
REMARK  165  A    between atoms: _437  and  _439
REMARK  166  A    between atoms: _439  and  _440
REMARK  167  A    between atoms: _439  and  _442
REMARK  168  A    between atoms: _442  and  _443
REMARK  169  A    between atoms: _448  and  _449
REMARK  170  A    between atoms: _451  and  _453
REMARK  171  A    between atoms: _453  and  _454
REMARK  172  A    between atoms: _453  and  _456
REMARK  173  A    between atoms: _456  and  _457
REMARK  174  A    between atoms: _460  and  _462
REMARK  175  A    between atoms: _462  and  _463
REMARK  176  A    between atoms: _462  and  _465
REMARK  177  A    between atoms: _465  and  _466
REMARK  178  A    between atoms: _476  and  _478
REMARK  179  A    between atoms: _478  and  _479
REMARK  180  A    between atoms: _478  and  _481
REMARK  181  A    between atoms: _481  and  _482
REMARK  182  A    between atoms: _485  and  _487
REMARK  183  A    between atoms: _487  and  _488
REMARK  184  A    between atoms: _487  and  _490
REMARK  185  A    between atoms: _490  and  _491
REMARK  186  A    between atoms: _496  and  _497
REMARK  187  A    between atoms: _499  and  _501
REMARK  188  A    between atoms: _501  and  _502
REMARK  189  A    between atoms: _501  and  _504
REMARK  190  A    between atoms: _504  and  _505
REMARK  191  A    between atoms: _511  and  _513
REMARK  192  A    between atoms: _513  and  _514
REMARK  193  A    between atoms: _517  and  _519
REMARK  194  A    between atoms: _519  and  _520
REMARK  195  A    between atoms: _519  and  _522
REMARK  196  A    between atoms: _522  and  _523
REMARK  197  A    between atoms: _525  and  _527
REMARK  198  A    between atoms: _527  and  _528
REMARK  199  A    between atoms: _530  and  _532
REMARK  200  A    between atoms: _532  and  _533
REMARK  201  A    between atoms: _532  and  _535
REMARK  202  A    between atoms: _535  and  _536
REMARK  203  A    between atoms: _536  and  _537
REMARK  204  A    between atoms: _543  and  _544
REMARK  205  A    between atoms: _549  and  _551
REMARK  206  A    between atoms: _551  and  _552
REMARK  207  A    between atoms: _551  and  _554
REMARK  208  A    between atoms: _554  and  _555
REMARK  209  A    between atoms: _560  and  _561
REMARK  210  A    between atoms: _563  and  _565
REMARK  211  A    between atoms: _565  and  _566
REMARK  212  A    between atoms: _565  and  _568
REMARK  213  A    between atoms: _568  and  _569
REMARK  214  A    between atoms: _569  and  _570
REMARK  215  A    between atoms: _570  and  _571
REMARK  216  A    between atoms: _580  and  _582
REMARK  217  A    between atoms: _582  and  _583
REMARK  218  A    between atoms: _582  and  _585
REMARK  219  A    between atoms: _585  and  _586
REMARK  220  A    between atoms: _591  and  _592
REMARK  221  A    between atoms: _594  and  _596
REMARK  222  A    between atoms: _596  and  _597
REMARK  223  A    between atoms: _596  and  _599
REMARK  224  A    between atoms: _599  and  _600
REMARK  225  A    between atoms: _600  and  _601
REMARK  226  A    between atoms: _604  and  _606
REMARK  227  A    between atoms: _606  and  _607
REMARK  228  A    between atoms: _606  and  _609
REMARK  229  A    between atoms: _609  and  _610
REMARK  230  A    between atoms: _610  and  _611
REMARK  231  A    between atoms: _611  and  _612
REMARK                            x       y       z     vdW  Elec       q    Type
REMARK                         _______ _______ _______ _____ _____    ______ ____
ROOT
ATOM      1  CG  TYR A   1      18.645  -6.646   7.729  0.00  0.00    -0.020 A 
ATOM      2  CD2 TYR A   1      18.495  -5.278   7.540  0.00  0.00    -0.001 A 
ATOM      3  CE2 TYR A   1      18.994  -4.656   6.410  0.00  0.00    +0.036 A 
ATOM      4  CZ  TYR A   1      19.646  -5.406   5.455  0.00  0.00    +0.134 A 
ATOM      5  CE1 TYR A   1      19.803  -6.765   5.618  0.00  0.00    +0.036 A 
ATOM      6  CD1 TYR A   1      19.303  -7.378   6.750  0.00  0.00    -0.001 A 
ENDROOT
BRANCH   4   7
ATOM      7  OH  TYR A   1      20.146  -4.797   4.328  0.00  0.00    -0.506 OA
ATOM      8  HH  TYR A   1      20.811  -4.113   4.592  0.00  0.00    +0.292 HD
ENDBRANCH   4   7
BRANCH   1   9
ATOM      9  CB  TYR A   1      18.094  -7.324   8.955  0.00  0.00    +0.051 C 
BRANCH   9  10
ATOM     10  CA  TYR A   1      16.777  -8.049   8.690  0.00  0.00    +0.137 C 
BRANCH  10  11
ATOM     11  N   TYR A   1      15.745  -7.102   8.269  0.00  0.00    -0.239 NA
ATOM     12  H   TYR A   1      15.602  -6.224   8.808  0.00  0.00    +0.142 HD
ENDBRANCH  10  11
BRANCH  10  13
ATOM     13  C   TYR A   1      16.436  -8.940   9.880  0.00  0.00    +0.224 C 
ATOM     14  O   TYR A   1      16.848 -10.097   9.911  0.00  0.00    -0.287 OA
ENDBRANCH  10  13
ENDBRANCH   9  10
ENDBRANCH   1   9
TORSDOF 5
REMARK  Name = ../refined-set-2016/4zb6/4zb6_pocket.pdb
REMARK  231 active torsions:
REMARK  status: ('A' for Active; 'I' for Inactive)
REMARK    1  A    between atoms: _1  and  _3
REMARK    2  A    between atoms: _3  and  _4
REMARK    3  A    between atoms: _3  and  _6
REMARK    4  A    between atoms: _6  and  _7
REMARK    5  A    between atoms: _10  and  _12
REMARK    6  A    between atoms: _12  and  _13
REMARK    7  A    between atoms: _12  and  _15
REMARK    8  A    between atoms: _15  and  _16
REMARK    9  A    between atoms: _21  and  _23
REMARK   10  A    between atoms: _23  and  _24
REMARK   11  A    between atoms: _23  and  _26
REMARK   12  A    between atoms: _26  and  _27
REMARK   13  A    between atoms: _29  and  _31
REMARK   14  A    between atoms: _31  and  _32
REMARK   15  A    between atoms: _35  and  _36
REMARK   16  A    between atoms: _41  and  _43
REMARK   17  A    between atoms: _43  and  _44
REMARK   18  A    between atoms: _43  and  _46
REMARK   19  A    between atoms: _46  and  _47
REMARK   20  A    between atoms: _52  and  _54
REMARK   21  A    between atoms: _54  and  _55
REMARK   22  A    between atoms: _57  and  _59
REMARK   23  A    between atoms: _59  and  _60
REMARK   24  A    between atoms: _59  and  _62
REMARK   25  A    between atoms: _62  and  _63
REMARK   26  A    between atoms: _73  and  _75
REMARK   27  A    between atoms: _75  and  _76
REMARK   28  A    between atoms: _75  and  _78
REMARK   29  A    between atoms: _78  and  _79
REMARK   30  A    between atoms: _79  and  _80
REMARK   31  A    between atoms: _80  and  _81
REMARK   32  A    between atoms: _81  and  _82
REMARK   33  A    between atoms: _86  and  _88
REMARK   34  A    between atoms: _88  and  _89
REMARK   35  A    between atoms: _88  and  _91
REMARK   36  A    between atoms: _94  and  _96
REMARK   37  A    between atoms: _96  and  _97
REMARK   38  A    between atoms: _96  and  _99
REMARK   39  A    between atoms: _99  and  _100
REMARK   40  A    between atoms: _103  and  _105
REMARK   41  A    between atoms: _105  and  _106
REMARK   42  A    between atoms: _105  and  _108
REMARK   43  A    between atoms: _108  and  _109
REMARK   44  A    between atoms: _112  and  _114
REMARK   45  A    between atoms: _114  and  _115
REMARK   46  A    between atoms: _114  and  _117
REMARK   47  A    between atoms: _117  and  _118
REMARK   48  A    between atoms: _118  and  _119
REMARK   49  A    between atoms: _121  and  _123
REMARK   50  A    between atoms: _123  and  _124
REMARK   51  A    between atoms: _126  and  _128
REMARK   52  A    between atoms: _128  and  _129
REMARK   53  A    between atoms: _128  and  _131
REMARK   54  A    between atoms: _131  and  _132
REMARK   55  A    between atoms: _137  and  _139
REMARK   56  A    between atoms: _139  and  _140
REMARK   57  A    between atoms: _139  and  _142
REMARK   58  A    between atoms: _142  and  _143
REMARK   59  A    between atoms: _143  and  _144
REMARK   60  A    between atoms: _144  and  _145
REMARK   61  A    between atoms: _145  and  _146
REMARK   62  A    between atoms: _150  and  _152
REMARK   63  A    between atoms: _152  and  _153
REMARK   64  A    between atoms: _152  and  _155
REMARK   65  A    between atoms: _155  and  _156
REMARK   66  A    between atoms: _161  and  _162
REMARK   67  A    between atoms: _164  and  _166
REMARK   68  A    between atoms: _166  and  _167
REMARK   69  A    between atoms: _166  and  _169
REMARK   70  A    between atoms: _169  and  _170
REMARK   71  A    between atoms: _175  and  _177
REMARK   72  A    between atoms: _177  and  _178
REMARK   73  A    between atoms: _177  and  _180
REMARK   74  A    between atoms: _180  and  _181
REMARK   75  A    between atoms: _186  and  _188
REMARK   76  A    between atoms: _188  and  _189
REMARK   77  A    between atoms: _191  and  _193
REMARK   78  A    between atoms: _193  and  _194
REMARK   79  A    between atoms: _193  and  _196
REMARK   80  A    between atoms: _196  and  _197
REMARK   81  A    between atoms: _197  and  _198
REMARK   82  A    between atoms: _198  and  _199
REMARK   83  A    between atoms: _208  and  _210
REMARK   84  A    between atoms: _210  and  _211
REMARK   85  A    between atoms: _210  and  _213
REMARK   86  A    between atoms: _217  and  _218
REMARK   87  A    between atoms: _223  and  _225
REMARK   88  A    between atoms: _225  and  _226
REMARK   89  A    between atoms: _229  and  _231
REMARK   90  A    between atoms: _231  and  _232
REMARK   91  A    between atoms: _231  and  _234
REMARK   92  A    between atoms: _234  and  _235
REMARK   93  A    between atoms: _245  and  _247
REMARK   94  A    between atoms: _247  and  _248
REMARK   95  A    between atoms: _247  and  _250
REMARK   96  A    between atoms: _250  and  _251
REMARK   97  A    between atoms: _251  and  _252
REMARK   98  A    between atoms: _255  and  _257
REMARK   99  A    between atoms: _257  and  _258
REMARK  100  A    between atoms: _257  and  _260
REMARK  101  A    between atoms: _260  and  _261
REMARK  102  A    between atoms: _263  and  _265
REMARK  103  A    between atoms: _265  and  _266
REMARK  104  A    between atoms: _265  and  _268
REMARK  105  A    between atoms: _268  and  _269
REMARK  106  A    between atoms: _274  and  _276
REMARK  107  A    between atoms: _276  and  _277
REMARK  108  A    between atoms: _280  and  _282
REMARK  109  A    between atoms: _282  and  _283
REMARK  110  A    between atoms: _282  and  _285
REMARK  111  A    between atoms: _288  and  _290
REMARK  112  A    between atoms: _290  and  _291
REMARK  113  A    between atoms: _290  and  _293
REMARK  114  A    between atoms: _293  and  _294
REMARK  115  A    between atoms: _297  and  _299
REMARK  116  A    between atoms: _299  and  _300
REMARK  117  A    between atoms: _299  and  _302
REMARK  118  A    between atoms: _302  and  _303
REMARK  119  A    between atoms: _303  and  _304
REMARK  120  A    between atoms: _309  and  _311
REMARK  121  A    between atoms: _311  and  _312
REMARK  122  A    between atoms: _315  and  _317
REMARK  123  A    between atoms: _317  and  _318
REMARK  124  A    between atoms: _317  and  _320
REMARK  125  A    between atoms: _320  and  _321
REMARK  126  A    between atoms: _323  and  _325
REMARK  127  A    between atoms: _325  and  _326
REMARK  128  A    between atoms: _328  and  _330
REMARK  129  A    between atoms: _330  and  _331
REMARK  130  A    between atoms: _330  and  _333
REMARK  131  A    between atoms: _333  and  _334
REMARK  132  A    between atoms: _334  and  _335
REMARK  133  A    between atoms: _340  and  _342
REMARK  134  A    between atoms: _342  and  _343
REMARK  135  A    between atoms: _346  and  _347
REMARK  136  A    between atoms: _352  and  _354
REMARK  137  A    between atoms: _354  and  _355
REMARK  138  A    between atoms: _354  and  _357
REMARK  139  A    between atoms: _357  and  _358
REMARK  140  A    between atoms: _363  and  _364
REMARK  141  A    between atoms: _366  and  _368
REMARK  142  A    between atoms: _368  and  _369
REMARK  143  A    between atoms: _368  and  _371
REMARK  144  A    between atoms: _371  and  _372
REMARK  145  A    between atoms: _377  and  _378
REMARK  146  A    between atoms: _380  and  _382
REMARK  147  A    between atoms: _382  and  _383
REMARK  148  A    between atoms: _385  and  _387
REMARK  149  A    between atoms: _387  and  _388
REMARK  150  A    between atoms: _387  and  _390
REMARK  151  A    between atoms: _390  and  _391
REMARK  152  A    between atoms: _391  and  _392
REMARK  153  A    between atoms: _397  and  _399
REMARK  154  A    between atoms: _399  and  _400
REMARK  155  A    between atoms: _403  and  _405
REMARK  156  A    between atoms: _405  and  _406
REMARK  157  A    between atoms: _409  and  _411
REMARK  158  A    between atoms: _411  and  _412
REMARK  159  A    between atoms: _411  and  _414
REMARK  160  A    between atoms: _414  and  _415
REMARK  161  A    between atoms: _425  and  _427
REMARK  162  A    between atoms: _427  and  _428
REMARK  163  A    between atoms: _427  and  _430
REMARK  164  A    between atoms: _430  and  _431
REMARK  165  A    between atoms: _437  and  _439
REMARK  166  A    between atoms: _439  and  _440
REMARK  167  A    between atoms: _439  and  _442
REMARK  168  A    between atoms: _442  and  _443
REMARK  169  A    between atoms: _448  and  _449
REMARK  170  A    between atoms: _451  and  _453
REMARK  171  A    between atoms: _453  and  _454
REMARK  172  A    between atoms: _453  and  _456
REMARK  173  A    between atoms: _456  and  _457
REMARK  174  A    between atoms: _460  and  _462
REMARK  175  A    between atoms: _462  and  _463
REMARK  176  A    between atoms: _462  and  _465
REMARK  177  A    between atoms: _465  and  _466
REMARK  178  A    between atoms: _476  and  _478
REMARK  179  A    between atoms: _478  and  _479
REMARK  180  A    between atoms: _478  and  _481
REMARK  181  A    between atoms: _481  and  _482
REMARK  182  A    between atoms: _485  and  _487
REMARK  183  A    between atoms: _487  and  _488
REMARK  184  A    between atoms: _487  and  _490
REMARK  185  A    between atoms: _490  and  _491
REMARK  186  A    between atoms: _496  and  _497
REMARK  187  A    between atoms: _499  and  _501
REMARK  188  A    between atoms: _501  and  _502
REMARK  189  A    between atoms: _501  and  _504
REMARK  190  A    between atoms: _504  and  _505
REMARK  191  A    between atoms: _511  and  _513
REMARK  192  A    between atoms: _513  and  _514
REMARK  193  A    between atoms: _517  and  _519
REMARK  194  A    between atoms: _519  and  _520
REMARK  195  A    between atoms: _519  and  _522
REMARK  196  A    between atoms: _522  and  _523
REMARK  197  A    between atoms: _525  and  _527
REMARK  198  A    between atoms: _527  and  _528
REMARK  199  A    between atoms: _530  and  _532
REMARK  200  A    between atoms: _532  and  _533
REMARK  201  A    between atoms: _532  and  _535
REMARK  202  A    between atoms: _535  and  _536
REMARK  203  A    between atoms: _536  and  _537
REMARK  204  A    between atoms: _543  and  _544
REMARK  205  A    between atoms: _549  and  _551
REMARK  206  A    between atoms: _551  and  _552
REMARK  207  A    between atoms: _551  and  _554
REMARK  208  A    between atoms: _554  and  _555
REMARK  209  A    between atoms: _560  and  _561
REMARK  210  A    between atoms: _563  and  _565
REMARK  211  A    between atoms: _565  and  _566
REMARK  212  A    between atoms: _565  and  _568
REMARK  213  A    between atoms: _568  and  _569
REMARK  214  A    between atoms: _569  and  _570
REMARK  215  A    between atoms: _570  and  _571
REMARK  216  A    between atoms: _580  and  _582
REMARK  217  A    between atoms: _582  and  _583
REMARK  218  A    between atoms: _582  and  _585
REMARK  219  A    between atoms: _585  and  _586
REMARK  220  A    between atoms: _591  and  _592
REMARK  221  A    between atoms: _594  and  _596
REMARK  222  A    between atoms: _596  and  _597
REMARK  223  A    between atoms: _596  and  _599
REMARK  224  A    between atoms: _599  and  _600
REMARK  225  A    between atoms: _600  and  _601
REMARK  226  A    between atoms: _604  and  _606
REMARK  227  A    between atoms: _606  and  _607
REMARK  228  A    between atoms: _606  and  _609
REMARK  229  A    between atoms: _609  and  _610
REMARK  230  A    between atoms: _610  and  _611
REMARK  231  A    between atoms: _611  and  _612
REMARK                            x       y       z     vdW  Elec       q    Type
REMARK                         _______ _______ _______ _____ _____    ______ ____
ROOT
ATOM      1  CA  TRP A   2      17.834   8.353   5.347  0.00  0.00    +0.141 C 
ENDROOT
BRANCH   1   3
ATOM      2  C   THR A   1      18.876   8.821   3.221  0.00  0.00    +0.241 C 
ATOM      3  N   TRP A   2      18.767   9.108   4.514  0.00  0.00    -0.298 N 
ATOM      4  H   TRP A   2      19.343   9.867   4.931  0.00  0.00    +0.150 HD
ATOM      5  O   THR A   1      18.262   7.885   2.700  0.00  0.00    -0.274 OA
BRANCH   2   6
ATOM      6  CA  THR A   1      19.797   9.704   2.377  0.00  0.00    +0.172 C 
BRANCH   6   7
ATOM      7  N   THR A   1      19.701  11.129   2.696  0.00  0.00    -0.236 NA
ATOM      8  H   THR A   1      20.500  11.620   3.145  0.00  0.00    +0.142 HD
ENDBRANCH   6   7
BRANCH   6   9
ATOM      9  CB  THR A   1      21.246   9.191   2.412  0.00  0.00    +0.135 C 
ATOM     10  CG2 THR A   1      22.060   9.817   1.283  0.00  0.00    +0.034 C 
BRANCH   9  11
ATOM     11  OG1 THR A   1      21.845   9.512   3.671  0.00  0.00    -0.383 OA
ATOM     12  HG1 THR A   1      22.777   9.179   3.686  0.00  0.00    +0.210 HD
ENDBRANCH   9  11
ENDBRANCH   6   9
ENDBRANCH   2   6
ENDBRANCH   1   3
BRANCH   1  13
ATOM     13  C   TRP A   2      16.381   8.678   5.009  0.00  0.00    +0.227 C 
ATOM     14  O   TRP A   2      15.521   7.802   5.058  0.00  0.00    -0.286 OA
ENDBRANCH   1  13
BRANCH   1  15
ATOM     15  CB  TRP A   2      18.100   8.560   6.842  0.00  0.00    +0.056 C 
BRANCH  15  16
ATOM     16  CG  TRP A   2      19.044   7.552   7.435  0.00  0.00    -0.002 A 
ATOM     17  CD1 TRP A   2      20.263   7.806   7.994  0.00  0.00    +0.068 A 
ATOM     18  NE1 TRP A   2      20.834   6.635   8.439  0.00  0.00    -0.352 N 
ATOM     19  HE1 TRP A   2      21.759   6.554   8.907  0.00  0.00    +0.166 HD
ATOM     20  CE2 TRP A   2      19.987   5.592   8.166  0.00  0.00    +0.056 A 
ATOM     21  CZ2 TRP A   2      20.132   4.218   8.422  0.00  0.00    +0.017 A 
ATOM     22  CH2 TRP A   2      19.111   3.387   8.034  0.00  0.00    +0.001 A 
ATOM     23  CZ3 TRP A   2      17.959   3.890   7.402  0.00  0.00    +0.000 A 
ATOM     24  CE3 TRP A   2      17.817   5.260   7.145  0.00  0.00    +0.001 A 
ATOM     25  CD2 TRP A   2      18.846   6.128   7.534  0.00  0.00    +0.013 A 
ENDBRANCH  15  16
ENDBRANCH   1  15
TORSDOF 8
REMARK  Name = ../refined-set-2016/4zb6/4zb6_pocket.pdb
REMARK  231 active torsions:
REMARK  status: ('A' for Active; 'I' for Inactive)
REMARK    1  A    between atoms: _1  and  _3
REMARK    2  A    between atoms: _3  and  _4
REMARK    3  A    between atoms: _3  and  _6
REMARK    4  A    between atoms: _6  and  _7
REMARK    5  A    between atoms: _10  and  _12
REMARK    6  A    between atoms: _12  and  _13
REMARK    7  A    between atoms: _12  and  _15
REMARK    8  A    between atoms: _15  and  _16
REMARK    9  A    between atoms: _21  and  _23
REMARK   10  A    between atoms: _23  and  _24
REMARK   11  A    between atoms: _23  and  _26
REMARK   12  A    between atoms: _26  and  _27
REMARK   13  A    between atoms: _29  and  _31
REMARK   14  A    between atoms: _31  and  _32
REMARK   15  A    between atoms: _35  and  _36
REMARK   16  A    between atoms: _41  and  _43
REMARK   17  A    between atoms: _43  and  _44
REMARK   18  A    between atoms: _43  and  _46
REMARK   19  A    between atoms: _46  and  _47
REMARK   20  A    between atoms: _52  and  _54
REMARK   21  A    between atoms: _54  and  _55
REMARK   22  A    between atoms: _57  and  _59
REMARK   23  A    between atoms: _59  and  _60
REMARK   24  A    between atoms: _59  and  _62
REMARK   25  A    between atoms: _62  and  _63
REMARK   26  A    between atoms: _73  and  _75
REMARK   27  A    between atoms: _75  and  _76
REMARK   28  A    between atoms: _75  and  _78
REMARK   29  A    between atoms: _78  and  _79
REMARK   30  A    between atoms: _79  and  _80
REMARK   31  A    between atoms: _80  and  _81
REMARK   32  A    between atoms: _81  and  _82
REMARK   33  A    between atoms: _86  and  _88
REMARK   34  A    between atoms: _88  and  _89
REMARK   35  A    between atoms: _88  and  _91
REMARK   36  A    between atoms: _94  and  _96
REMARK   37  A    between atoms: _96  and  _97
REMARK   38  A    between atoms: _96  and  _99
REMARK   39  A    between atoms: _99  and  _100
REMARK   40  A    between atoms: _103  and  _105
REMARK   41  A    between atoms: _105  and  _106
REMARK   42  A    between atoms: _105  and  _108
REMARK   43  A    between atoms: _108  and  _109
REMARK   44  A    between atoms: _112  and  _114
REMARK   45  A    between atoms: _114  and  _115
REMARK   46  A    between atoms: _114  and  _117
REMARK   47  A    between atoms: _117  and  _118
REMARK   48  A    between atoms: _118  and  _119
REMARK   49  A    between atoms: _121  and  _123
REMARK   50  A    between atoms: _123  and  _124
REMARK   51  A    between atoms: _126  and  _128
REMARK   52  A    between atoms: _128  and  _129
REMARK   53  A    between atoms: _128  and  _131
REMARK   54  A    between atoms: _131  and  _132
REMARK   55  A    between atoms: _137  and  _139
REMARK   56  A    between atoms: _139  and  _140
REMARK   57  A    between atoms: _139  and  _142
REMARK   58  A    between atoms: _142  and  _143
REMARK   59  A    between atoms: _143  and  _144
REMARK   60  A    between atoms: _144  and  _145
REMARK   61  A    between atoms: _145  and  _146
REMARK   62  A    between atoms: _150  and  _152
REMARK   63  A    between atoms: _152  and  _153
REMARK   64  A    between atoms: _152  and  _155
REMARK   65  A    between atoms: _155  and  _156
REMARK   66  A    between atoms: _161  and  _162
REMARK   67  A    between atoms: _164  and  _166
REMARK   68  A    between atoms: _166  and  _167
REMARK   69  A    between atoms: _166  and  _169
REMARK   70  A    between atoms: _169  and  _170
REMARK   71  A    between atoms: _175  and  _177
REMARK   72  A    between atoms: _177  and  _178
REMARK   73  A    between atoms: _177  and  _180
REMARK   74  A    between atoms: _180  and  _181
REMARK   75  A    between atoms: _186  and  _188
REMARK   76  A    between atoms: _188  and  _189
REMARK   77  A    between atoms: _191  and  _193
REMARK   78  A    between atoms: _193  and  _194
REMARK   79  A    between atoms: _193  and  _196
REMARK   80  A    between atoms: _196  and  _197
REMARK   81  A    between atoms: _197  and  _198
REMARK   82  A    between atoms: _198  and  _199
REMARK   83  A    between atoms: _208  and  _210
REMARK   84  A    between atoms: _210  and  _211
REMARK   85  A    between atoms: _210  and  _213
REMARK   86  A    between atoms: _217  and  _218
REMARK   87  A    between atoms: _223  and  _225
REMARK   88  A    between atoms: _225  and  _226
REMARK   89  A    between atoms: _229  and  _231
REMARK   90  A    between atoms: _231  and  _232
REMARK   91  A    between atoms: _231  and  _234
REMARK   92  A    between atoms: _234  and  _235
REMARK   93  A    between atoms: _245  and  _247
REMARK   94  A    between atoms: _247  and  _248
REMARK   95  A    between atoms: _247  and  _250
REMARK   96  A    between atoms: _250  and  _251
REMARK   97  A    between atoms: _251  and  _252
REMARK   98  A    between atoms: _255  and  _257
REMARK   99  A    between atoms: _257  and  _258
REMARK  100  A    between atoms: _257  and  _260
REMARK  101  A    between atoms: _260  and  _261
REMARK  102  A    between atoms: _263  and  _265
REMARK  103  A    between atoms: _265  and  _266
REMARK  104  A    between atoms: _265  and  _268
REMARK  105  A    between atoms: _268  and  _269
REMARK  106  A    between atoms: _274  and  _276
REMARK  107  A    between atoms: _276  and  _277
REMARK  108  A    between atoms: _280  and  _282
REMARK  109  A    between atoms: _282  and  _283
REMARK  110  A    between atoms: _282  and  _285
REMARK  111  A    between atoms: _288  and  _290
REMARK  112  A    between atoms: _290  and  _291
REMARK  113  A    between atoms: _290  and  _293
REMARK  114  A    between atoms: _293  and  _294
REMARK  115  A    between atoms: _297  and  _299
REMARK  116  A    between atoms: _299  and  _300
REMARK  117  A    between atoms: _299  and  _302
REMARK  118  A    between atoms: _302  and  _303
REMARK  119  A    between atoms: _303  and  _304
REMARK  120  A    between atoms: _309  and  _311
REMARK  121  A    between atoms: _311  and  _312
REMARK  122  A    between atoms: _315  and  _317
REMARK  123  A    between atoms: _317  and  _318
REMARK  124  A    between atoms: _317  and  _320
REMARK  125  A    between atoms: _320  and  _321
REMARK  126  A    between atoms: _323  and  _325
REMARK  127  A    between atoms: _325  and  _326
REMARK  128  A    between atoms: _328  and  _330
REMARK  129  A    between atoms: _330  and  _331
REMARK  130  A    between atoms: _330  and  _333
REMARK  131  A    between atoms: _333  and  _334
REMARK  132  A    between atoms: _334  and  _335
REMARK  133  A    between atoms: _340  and  _342
REMARK  134  A    between atoms: _342  and  _343
REMARK  135  A    between atoms: _346  and  _347
REMARK  136  A    between atoms: _352  and  _354
REMARK  137  A    between atoms: _354  and  _355
REMARK  138  A    between atoms: _354  and  _357
REMARK  139  A    between atoms: _357  and  _358
REMARK  140  A    between atoms: _363  and  _364
REMARK  141  A    between atoms: _366  and  _368
REMARK  142  A    between atoms: _368  and  _369
REMARK  143  A    between atoms: _368  and  _371
REMARK  144  A    between atoms: _371  and  _372
REMARK  145  A    between atoms: _377  and  _378
REMARK  146  A    between atoms: _380  and  _382
REMARK  147  A    between atoms: _382  and  _383
REMARK  148  A    between atoms: _385  and  _387
REMARK  149  A    between atoms: _387  and  _388
REMARK  150  A    between atoms: _387  and  _390
REMARK  151  A    between atoms: _390  and  _391
REMARK  152  A    between atoms: _391  and  _392
REMARK  153  A    between atoms: _397  and  _399
REMARK  154  A    between atoms: _399  and  _400
REMARK  155  A    between atoms: _403  and  _405
REMARK  156  A    between atoms: _405  and  _406
REMARK  157  A    between atoms: _409  and  _411
REMARK  158  A    between atoms: _411  and  _412
REMARK  159  A    between atoms: _411  and  _414
REMARK  160  A    between atoms: _414  and  _415
REMARK  161  A    between atoms: _425  and  _427
REMARK  162  A    between atoms: _427  and  _428
REMARK  163  A    between atoms: _427  and  _430
REMARK  164  A    between atoms: _430  and  _431
REMARK  165  A    between atoms: _437  and  _439
REMARK  166  A    between atoms: _439  and  _440
REMARK  167  A    between atoms: _439  and  _442
REMARK  168  A    between atoms: _442  and  _443
REMARK  169  A    between atoms: _448  and  _449
REMARK  170  A    between atoms: _451  and  _453
REMARK  171  A    between atoms: _453  and  _454
REMARK  172  A    between atoms: _453  and  _456
REMARK  173  A    between atoms: _456  and  _457
REMARK  174  A    between atoms: _460  and  _462
REMARK  175  A    between atoms: _462  and  _463
REMARK  176  A    between atoms: _462  and  _465
REMARK  177  A    between atoms: _465  and  _466
REMARK  178  A    between atoms: _476  and  _478
REMARK  179  A    between atoms: _478  and  _479
REMARK  180  A    between atoms: _478  and  _481
REMARK  181  A    between atoms: _481  and  _482
REMARK  182  A    between atoms: _485  and  _487
REMARK  183  A    between atoms: _487  and  _488
REMARK  184  A    between atoms: _487  and  _490
REMARK  185  A    between atoms: _490  and  _491
REMARK  186  A    between atoms: _496  and  _497
REMARK  187  A    between atoms: _499  and  _501
REMARK  188  A    between atoms: _501  and  _502
REMARK  189  A    between atoms: _501  and  _504
REMARK  190  A    between atoms: _504  and  _505
REMARK  191  A    between atoms: _511  and  _513
REMARK  192  A    between atoms: _513  and  _514
REMARK  193  A    between atoms: _517  and  _519
REMARK  194  A    between atoms: _519  and  _520
REMARK  195  A    between atoms: _519  and  _522
REMARK  196  A    between atoms: _522  and  _523
REMARK  197  A    between atoms: _525  and  _527
REMARK  198  A    between atoms: _527  and  _528
REMARK  199  A    between atoms: _530  and  _532
REMARK  200  A    between atoms: _532  and  _533
REMARK  201  A    between atoms: _532  and  _535
REMARK  202  A    between atoms: _535  and  _536
REMARK  203  A    between atoms: _536  and  _537
REMARK  204  A    between atoms: _543  and  _544
REMARK  205  A    between atoms: _549  and  _551
REMARK  206  A    between atoms: _551  and  _552
REMARK  207  A    between atoms: _551  and  _554
REMARK  208  A    between atoms: _554  and  _555
REMARK  209  A    between atoms: _560  and  _561
REMARK  210  A    between atoms: _563  and  _565
REMARK  211  A    between atoms: _565  and  _566
REMARK  212  A    between atoms: _565  and  _568
REMARK  213  A    between atoms: _568  and  _569
REMARK  214  A    between atoms: _569  and  _570
REMARK  215  A    between atoms: _570  and  _571
REMARK  216  A    between atoms: _580  and  _582
REMARK  217  A    between atoms: _582  and  _583
REMARK  218  A    between atoms: _582  and  _585
REMARK  219  A    between atoms: _585  and  _586
REMARK  220  A    between atoms: _591  and  _592
REMARK  221  A    between atoms: _594  and  _596
REMARK  222  A    between atoms: _596  and  _597
REMARK  223  A    between atoms: _596  and  _599
REMARK  224  A    between atoms: _599  and  _600
REMARK  225  A    between atoms: _600  and  _601
REMARK  226  A    between atoms: _604  and  _606
REMARK  227  A    between atoms: _606  and  _607
REMARK  228  A    between atoms: _606  and  _609
REMARK  229  A    between atoms: _609  and  _610
REMARK  230  A    between atoms: _610  and  _611
REMARK  231  A    between atoms: _611  and  _612
REMARK                            x       y       z     vdW  Elec       q    Type
REMARK                         _______ _______ _______ _____ _____    ______ ____
ROOT
ATOM      1  CA  ILE A   1      15.093   5.192   2.467  0.00  0.00    +0.133 C 
ENDROOT
BRANCH   1   2
ATOM      2  N   ILE A   1      15.391   6.564   2.056  0.00  0.00    -0.239 NA
ATOM      3  H   ILE A   1      16.206   7.055   2.477  0.00  0.00    +0.142 HD
ENDBRANCH   1   2
BRANCH   1   4
ATOM      4  CB  ILE A   1      16.212   4.626   3.368  0.00  0.00    +0.023 C 
ATOM      5  CG2 ILE A   1      15.821   3.261   3.931  0.00  0.00    +0.002 C 
BRANCH   4   6
ATOM      6  CG1 ILE A   1      17.521   4.528   2.578  0.00  0.00    +0.002 C 
ATOM      7  CD1 ILE A   1      18.745   4.277   3.437  0.00  0.00    +0.000 C 
ENDBRANCH   4   6
ENDBRANCH   1   4
BRANCH   1   8
ATOM      8  C   ILE A   1      13.736   5.106   3.170  0.00  0.00    +0.224 C 
ATOM      9  O   ILE A   1      12.954   4.190   2.918  0.00  0.00    -0.287 OA
ENDBRANCH   1   8
TORSDOF 4
REMARK  Name = ../refined-set-2016/4zb6/4zb6_pocket.pdb
REMARK  231 active torsions:
REMARK  status: ('A' for Active; 'I' for Inactive)
REMARK    1  A    between atoms: _1  and  _3
REMARK    2  A    between atoms: _3  and  _4
REMARK    3  A    between atoms: _3  and  _6
REMARK    4  A    between atoms: _6  and  _7
REMARK    5  A    between atoms: _10  and  _12
REMARK    6  A    between atoms: _12  and  _13
REMARK    7  A    between atoms: _12  and  _15
REMARK    8  A    between atoms: _15  and  _16
REMARK    9  A    between atoms: _21  and  _23
REMARK   10  A    between atoms: _23  and  _24
REMARK   11  A    between atoms: _23  and  _26
REMARK   12  A    between atoms: _26  and  _27
REMARK   13  A    between atoms: _29  and  _31
REMARK   14  A    between atoms: _31  and  _32
REMARK   15  A    between atoms: _35  and  _36
REMARK   16  A    between atoms: _41  and  _43
REMARK   17  A    between atoms: _43  and  _44
REMARK   18  A    between atoms: _43  and  _46
REMARK   19  A    between atoms: _46  and  _47
REMARK   20  A    between atoms: _52  and  _54
REMARK   21  A    between atoms: _54  and  _55
REMARK   22  A    between atoms: _57  and  _59
REMARK   23  A    between atoms: _59  and  _60
REMARK   24  A    between atoms: _59  and  _62
REMARK   25  A    between atoms: _62  and  _63
REMARK   26  A    between atoms: _73  and  _75
REMARK   27  A    between atoms: _75  and  _76
REMARK   28  A    between atoms: _75  and  _78
REMARK   29  A    between atoms: _78  and  _79
REMARK   30  A    between atoms: _79  and  _80
REMARK   31  A    between atoms: _80  and  _81
REMARK   32  A    between atoms: _81  and  _82
REMARK   33  A    between atoms: _86  and  _88
REMARK   34  A    between atoms: _88  and  _89
REMARK   35  A    between atoms: _88  and  _91
REMARK   36  A    between atoms: _94  and  _96
REMARK   37  A    between atoms: _96  and  _97
REMARK   38  A    between atoms: _96  and  _99
REMARK   39  A    between atoms: _99  and  _100
REMARK   40  A    between atoms: _103  and  _105
REMARK   41  A    between atoms: _105  and  _106
REMARK   42  A    between atoms: _105  and  _108
REMARK   43  A    between atoms: _108  and  _109
REMARK   44  A    between atoms: _112  and  _114
REMARK   45  A    between atoms: _114  and  _115
REMARK   46  A    between atoms: _114  and  _117
REMARK   47  A    between atoms: _117  and  _118
REMARK   48  A    between atoms: _118  and  _119
REMARK   49  A    between atoms: _121  and  _123
REMARK   50  A    between atoms: _123  and  _124
REMARK   51  A    between atoms: _126  and  _128
REMARK   52  A    between atoms: _128  and  _129
REMARK   53  A    between atoms: _128  and  _131
REMARK   54  A    between atoms: _131  and  _132
REMARK   55  A    between atoms: _137  and  _139
REMARK   56  A    between atoms: _139  and  _140
REMARK   57  A    between atoms: _139  and  _142
REMARK   58  A    between atoms: _142  and  _143
REMARK   59  A    between atoms: _143  and  _144
REMARK   60  A    between atoms: _144  and  _145
REMARK   61  A    between atoms: _145  and  _146
REMARK   62  A    between atoms: _150  and  _152
REMARK   63  A    between atoms: _152  and  _153
REMARK   64  A    between atoms: _152  and  _155
REMARK   65  A    between atoms: _155  and  _156
REMARK   66  A    between atoms: _161  and  _162
REMARK   67  A    between atoms: _164  and  _166
REMARK   68  A    between atoms: _166  and  _167
REMARK   69  A    between atoms: _166  and  _169
REMARK   70  A    between atoms: _169  and  _170
REMARK   71  A    between atoms: _175  and  _177
REMARK   72  A    between atoms: _177  and  _178
REMARK   73  A    between atoms: _177  and  _180
REMARK   74  A    between atoms: _180  and  _181
REMARK   75  A    between atoms: _186  and  _188
REMARK   76  A    between atoms: _188  and  _189
REMARK   77  A    between atoms: _191  and  _193
REMARK   78  A    between atoms: _193  and  _194
REMARK   79  A    between atoms: _193  and  _196
REMARK   80  A    between atoms: _196  and  _197
REMARK   81  A    between atoms: _197  and  _198
REMARK   82  A    between atoms: _198  and  _199
REMARK   83  A    between atoms: _208  and  _210
REMARK   84  A    between atoms: _210  and  _211
REMARK   85  A    between atoms: _210  and  _213
REMARK   86  A    between atoms: _217  and  _218
REMARK   87  A    between atoms: _223  and  _225
REMARK   88  A    between atoms: _225  and  _226
REMARK   89  A    between atoms: _229  and  _231
REMARK   90  A    between atoms: _231  and  _232
REMARK   91  A    between atoms: _231  and  _234
REMARK   92  A    between atoms: _234  and  _235
REMARK   93  A    between atoms: _245  and  _247
REMARK   94  A    between atoms: _247  and  _248
REMARK   95  A    between atoms: _247  and  _250
REMARK   96  A    between atoms: _250  and  _251
REMARK   97  A    between atoms: _251  and  _252
REMARK   98  A    between atoms: _255  and  _257
REMARK   99  A    between atoms: _257  and  _258
REMARK  100  A    between atoms: _257  and  _260
REMARK  101  A    between atoms: _260  and  _261
REMARK  102  A    between atoms: _263  and  _265
REMARK  103  A    between atoms: _265  and  _266
REMARK  104  A    between atoms: _265  and  _268
REMARK  105  A    between atoms: _268  and  _269
REMARK  106  A    between atoms: _274  and  _276
REMARK  107  A    between atoms: _276  and  _277
REMARK  108  A    between atoms: _280  and  _282
REMARK  109  A    between atoms: _282  and  _283
REMARK  110  A    between atoms: _282  and  _285
REMARK  111  A    between atoms: _288  and  _290
REMARK  112  A    between atoms: _290  and  _291
REMARK  113  A    between atoms: _290  and  _293
REMARK  114  A    between atoms: _293  and  _294
REMARK  115  A    between atoms: _297  and  _299
REMARK  116  A    between atoms: _299  and  _300
REMARK  117  A    between atoms: _299  and  _302
REMARK  118  A    between atoms: _302  and  _303
REMARK  119  A    between atoms: _303  and  _304
REMARK  120  A    between atoms: _309  and  _311
REMARK  121  A    between atoms: _311  and  _312
REMARK  122  A    between atoms: _315  and  _317
REMARK  123  A    between atoms: _317  and  _318
REMARK  124  A    between atoms: _317  and  _320
REMARK  125  A    between atoms: _320  and  _321
REMARK  126  A    between atoms: _323  and  _325
REMARK  127  A    between atoms: _325  and  _326
REMARK  128  A    between atoms: _328  and  _330
REMARK  129  A    between atoms: _330  and  _331
REMARK  130  A    between atoms: _330  and  _333
REMARK  131  A    between atoms: _333  and  _334
REMARK  132  A    between atoms: _334  and  _335
REMARK  133  A    between atoms: _340  and  _342
REMARK  134  A    between atoms: _342  and  _343
REMARK  135  A    between atoms: _346  and  _347
REMARK  136  A    between atoms: _352  and  _354
REMARK  137  A    between atoms: _354  and  _355
REMARK  138  A    between atoms: _354  and  _357
REMARK  139  A    between atoms: _357  and  _358
REMARK  140  A    between atoms: _363  and  _364
REMARK  141  A    between atoms: _366  and  _368
REMARK  142  A    between atoms: _368  and  _369
REMARK  143  A    between atoms: _368  and  _371
REMARK  144  A    between atoms: _371  and  _372
REMARK  145  A    between atoms: _377  and  _378
REMARK  146  A    between atoms: _380  and  _382
REMARK  147  A    between atoms: _382  and  _383
REMARK  148  A    between atoms: _385  and  _387
REMARK  149  A    between atoms: _387  and  _388
REMARK  150  A    between atoms: _387  and  _390
REMARK  151  A    between atoms: _390  and  _391
REMARK  152  A    between atoms: _391  and  _392
REMARK  153  A    between atoms: _397  and  _399
REMARK  154  A    between atoms: _399  and  _400
REMARK  155  A    between atoms: _403  and  _405
REMARK  156  A    between atoms: _405  and  _406
REMARK  157  A    between atoms: _409  and  _411
REMARK  158  A    between atoms: _411  and  _412
REMARK  159  A    between atoms: _411  and  _414
REMARK  160  A    between atoms: _414  and  _415
REMARK  161  A    between atoms: _425  and  _427
REMARK  162  A    between atoms: _427  and  _428
REMARK  163  A    between atoms: _427  and  _430
REMARK  164  A    between atoms: _430  and  _431
REMARK  165  A    between atoms: _437  and  _439
REMARK  166  A    between atoms: _439  and  _440
REMARK  167  A    between atoms: _439  and  _442
REMARK  168  A    between atoms: _442  and  _443
REMARK  169  A    between atoms: _448  and  _449
REMARK  170  A    between atoms: _451  and  _453
REMARK  171  A    between atoms: _453  and  _454
REMARK  172  A    between atoms: _453  and  _456
REMARK  173  A    between atoms: _456  and  _457
REMARK  174  A    between atoms: _460  and  _462
REMARK  175  A    between atoms: _462  and  _463
REMARK  176  A    between atoms: _462  and  _465
REMARK  177  A    between atoms: _465  and  _466
REMARK  178  A    between atoms: _476  and  _478
REMARK  179  A    between atoms: _478  and  _479
REMARK  180  A    between atoms: _478  and  _481
REMARK  181  A    between atoms: _481  and  _482
REMARK  182  A    between atoms: _485  and  _487
REMARK  183  A    between atoms: _487  and  _488
REMARK  184  A    between atoms: _487  and  _490
REMARK  185  A    between atoms: _490  and  _491
REMARK  186  A    between atoms: _496  and  _497
REMARK  187  A    between atoms: _499  and  _501
REMARK  188  A    between atoms: _501  and  _502
REMARK  189  A    between atoms: _501  and  _504
REMARK  190  A    between atoms: _504  and  _505
REMARK  191  A    between atoms: _511  and  _513
REMARK  192  A    between atoms: _513  and  _514
REMARK  193  A    between atoms: _517  and  _519
REMARK  194  A    between atoms: _519  and  _520
REMARK  195  A    between atoms: _519  and  _522
REMARK  196  A    between atoms: _522  and  _523
REMARK  197  A    between atoms: _525  and  _527
REMARK  198  A    between atoms: _527  and  _528
REMARK  199  A    between atoms: _530  and  _532
REMARK  200  A    between atoms: _532  and  _533
REMARK  201  A    between atoms: _532  and  _535
REMARK  202  A    between atoms: _535  and  _536
REMARK  203  A    between atoms: _536  and  _537
REMARK  204  A    between atoms: _543  and  _544
REMARK  205  A    between atoms: _549  and  _551
REMARK  206  A    between atoms: _551  and  _552
REMARK  207  A    between atoms: _551  and  _554
REMARK  208  A    between atoms: _554  and  _555
REMARK  209  A    between atoms: _560  and  _561
REMARK  210  A    between atoms: _563  and  _565
REMARK  211  A    between atoms: _565  and  _566
REMARK  212  A    between atoms: _565  and  _568
REMARK  213  A    between atoms: _568  and  _569
REMARK  214  A    between atoms: _569  and  _570
REMARK  215  A    between atoms: _570  and  _571
REMARK  216  A    between atoms: _580  and  _582
REMARK  217  A    between atoms: _582  and  _583
REMARK  218  A    between atoms: _582  and  _585
REMARK  219  A    between atoms: _585  and  _586
REMARK  220  A    between atoms: _591  and  _592
REMARK  221  A    between atoms: _594  and  _596
REMARK  222  A    between atoms: _596  and  _597
REMARK  223  A    between atoms: _596  and  _599
REMARK  224  A    between atoms: _599  and  _600
REMARK  225  A    between atoms: _600  and  _601
REMARK  226  A    between atoms: _604  and  _606
REMARK  227  A    between atoms: _606  and  _607
REMARK  228  A    between atoms: _606  and  _609
REMARK  229  A    between atoms: _609  and  _610
REMARK  230  A    between atoms: _610  and  _611
REMARK  231  A    between atoms: _611  and  _612
REMARK                            x       y       z     vdW  Elec       q    Type
REMARK                         _______ _______ _______ _____ _____    ______ ____
ROOT
ATOM      1  C   TYR A   1      29.238   9.717  17.712  0.00  0.00    +0.239 C 
ATOM      2  N   PHE A   2      30.302   8.990  18.037  0.00  0.00    -0.298 N 
ATOM      3  H   PHE A   2      31.246   9.426  18.059  0.00  0.00    +0.150 HD
ATOM      4  O   TYR A   1      28.108   9.233  17.595  0.00  0.00    -0.274 OA
ENDROOT
BRANCH   1   5
ATOM      5  CA  TYR A   1      29.468  11.206  17.488  0.00  0.00    +0.149 C 
BRANCH   5   6
ATOM      6  N   TYR A   1      30.494  11.731  18.383  0.00  0.00    -0.238 NA
ATOM      7  H   TYR A   1      31.426  11.996  18.005  0.00  0.00    +0.142 HD
ENDBRANCH   5   6
BRANCH   5   8
ATOM      8  CB  TYR A   1      29.799  11.491  16.023  0.00  0.00    +0.053 C 
BRANCH   8   9
ATOM      9  CG  TYR A   1      29.169  12.770  15.524  0.00  0.00    -0.020 A 
ATOM     10  CD2 TYR A   1      27.801  12.844  15.302  0.00  0.00    -0.001 A 
ATOM     11  CE2 TYR A   1      27.212  14.007  14.848  0.00  0.00    +0.036 A 
ATOM     12  CZ  TYR A   1      27.989  15.114  14.613  0.00  0.00    +0.134 A 
ATOM     13  CE1 TYR A   1      29.351  15.072  14.830  0.00  0.00    +0.036 A 
ATOM     14  CD1 TYR A   1      29.935  13.902  15.282  0.00  0.00    -0.001 A 
BRANCH  12  15
ATOM     15  OH  TYR A   1      27.400  16.274  14.158  0.00  0.00    -0.506 OA
ATOM     16  HH  TYR A   1      27.791  16.519  13.282  0.00  0.00    +0.292 HD
ENDBRANCH  12  15
ENDBRANCH   8   9
ENDBRANCH   5   8
ENDBRANCH   1   5
BRANCH   2  17
ATOM     17  CA  PHE A   2      30.138   7.574  18.363  0.00  0.00    +0.141 C 
BRANCH  17  18
ATOM     18  C   PHE A   2      29.267   7.431  19.605  0.00  0.00    +0.227 C 
ATOM     19  O   PHE A   2      28.383   6.575  19.653  0.00  0.00    -0.286 OA
ENDBRANCH  17  18
BRANCH  17  20
ATOM     20  CB  PHE A   2      31.479   6.867  18.564  0.00  0.00    +0.054 C 
BRANCH  20  21
ATOM     21  CG  PHE A   2      31.339   5.416  18.945  0.00  0.00    -0.020 A 
ATOM     22  CD2 PHE A   2      31.948   4.917  20.091  0.00  0.00    -0.004 A 
ATOM     23  CE2 PHE A   2      31.814   3.579  20.444  0.00  0.00    -0.000 A 
ATOM     24  CZ  PHE A   2      31.065   2.725  19.649  0.00  0.00    -0.000 A 
ATOM     25  CE1 PHE A   2      30.449   3.208  18.508  0.00  0.00    -0.000 A 
ATOM     26  CD1 PHE A   2      30.588   4.554  18.159  0.00  0.00    -0.004 A 
ENDBRANCH  20  21
ENDBRANCH  17  20
ENDBRANCH   2  17
TORSDOF 9
REMARK  Name = ../refined-set-2016/4zb6/4zb6_pocket.pdb
REMARK  231 active torsions:
REMARK  status: ('A' for Active; 'I' for Inactive)
REMARK    1  A    between atoms: _1  and  _3
REMARK    2  A    between atoms: _3  and  _4
REMARK    3  A    between atoms: _3  and  _6
REMARK    4  A    between atoms: _6  and  _7
REMARK    5  A    between atoms: _10  and  _12
REMARK    6  A    between atoms: _12  and  _13
REMARK    7  A    between atoms: _12  and  _15
REMARK    8  A    between atoms: _15  and  _16
REMARK    9  A    between atoms: _21  and  _23
REMARK   10  A    between atoms: _23  and  _24
REMARK   11  A    between atoms: _23  and  _26
REMARK   12  A    between atoms: _26  and  _27
REMARK   13  A    between atoms: _29  and  _31
REMARK   14  A    between atoms: _31  and  _32
REMARK   15  A    between atoms: _35  and  _36
REMARK   16  A    between atoms: _41  and  _43
REMARK   17  A    between atoms: _43  and  _44
REMARK   18  A    between atoms: _43  and  _46
REMARK   19  A    between atoms: _46  and  _47
REMARK   20  A    between atoms: _52  and  _54
REMARK   21  A    between atoms: _54  and  _55
REMARK   22  A    between atoms: _57  and  _59
REMARK   23  A    between atoms: _59  and  _60
REMARK   24  A    between atoms: _59  and  _62
REMARK   25  A    between atoms: _62  and  _63
REMARK   26  A    between atoms: _73  and  _75
REMARK   27  A    between atoms: _75  and  _76
REMARK   28  A    between atoms: _75  and  _78
REMARK   29  A    between atoms: _78  and  _79
REMARK   30  A    between atoms: _79  and  _80
REMARK   31  A    between atoms: _80  and  _81
REMARK   32  A    between atoms: _81  and  _82
REMARK   33  A    between atoms: _86  and  _88
REMARK   34  A    between atoms: _88  and  _89
REMARK   35  A    between atoms: _88  and  _91
REMARK   36  A    between atoms: _94  and  _96
REMARK   37  A    between atoms: _96  and  _97
REMARK   38  A    between atoms: _96  and  _99
REMARK   39  A    between atoms: _99  and  _100
REMARK   40  A    between atoms: _103  and  _105
REMARK   41  A    between atoms: _105  and  _106
REMARK   42  A    between atoms: _105  and  _108
REMARK   43  A    between atoms: _108  and  _109
REMARK   44  A    between atoms: _112  and  _114
REMARK   45  A    between atoms: _114  and  _115
REMARK   46  A    between atoms: _114  and  _117
REMARK   47  A    between atoms: _117  and  _118
REMARK   48  A    between atoms: _118  and  _119
REMARK   49  A    between atoms: _121  and  _123
REMARK   50  A    between atoms: _123  and  _124
REMARK   51  A    between atoms: _126  and  _128
REMARK   52  A    between atoms: _128  and  _129
REMARK   53  A    between atoms: _128  and  _131
REMARK   54  A    between atoms: _131  and  _132
REMARK   55  A    between atoms: _137  and  _139
REMARK   56  A    between atoms: _139  and  _140
REMARK   57  A    between atoms: _139  and  _142
REMARK   58  A    between atoms: _142  and  _143
REMARK   59  A    between atoms: _143  and  _144
REMARK   60  A    between atoms: _144  and  _145
REMARK   61  A    between atoms: _145  and  _146
REMARK   62  A    between atoms: _150  and  _152
REMARK   63  A    between atoms: _152  and  _153
REMARK   64  A    between atoms: _152  and  _155
REMARK   65  A    between atoms: _155  and  _156
REMARK   66  A    between atoms: _161  and  _162
REMARK   67  A    between atoms: _164  and  _166
REMARK   68  A    between atoms: _166  and  _167
REMARK   69  A    between atoms: _166  and  _169
REMARK   70  A    between atoms: _169  and  _170
REMARK   71  A    between atoms: _175  and  _177
REMARK   72  A    between atoms: _177  and  _178
REMARK   73  A    between atoms: _177  and  _180
REMARK   74  A    between atoms: _180  and  _181
REMARK   75  A    between atoms: _186  and  _188
REMARK   76  A    between atoms: _188  and  _189
REMARK   77  A    between atoms: _191  and  _193
REMARK   78  A    between atoms: _193  and  _194
REMARK   79  A    between atoms: _193  and  _196
REMARK   80  A    between atoms: _196  and  _197
REMARK   81  A    between atoms: _197  and  _198
REMARK   82  A    between atoms: _198  and  _199
REMARK   83  A    between atoms: _208  and  _210
REMARK   84  A    between atoms: _210  and  _211
REMARK   85  A    between atoms: _210  and  _213
REMARK   86  A    between atoms: _217  and  _218
REMARK   87  A    between atoms: _223  and  _225
REMARK   88  A    between atoms: _225  and  _226
REMARK   89  A    between atoms: _229  and  _231
REMARK   90  A    between atoms: _231  and  _232
REMARK   91  A    between atoms: _231  and  _234
REMARK   92  A    between atoms: _234  and  _235
REMARK   93  A    between atoms: _245  and  _247
REMARK   94  A    between atoms: _247  and  _248
REMARK   95  A    between atoms: _247  and  _250
REMARK   96  A    between atoms: _250  and  _251
REMARK   97  A    between atoms: _251  and  _252
REMARK   98  A    between atoms: _255  and  _257
REMARK   99  A    between atoms: _257  and  _258
REMARK  100  A    between atoms: _257  and  _260
REMARK  101  A    between atoms: _260  and  _261
REMARK  102  A    between atoms: _263  and  _265
REMARK  103  A    between atoms: _265  and  _266
REMARK  104  A    between atoms: _265  and  _268
REMARK  105  A    between atoms: _268  and  _269
REMARK  106  A    between atoms: _274  and  _276
REMARK  107  A    between atoms: _276  and  _277
REMARK  108  A    between atoms: _280  and  _282
REMARK  109  A    between atoms: _282  and  _283
REMARK  110  A    between atoms: _282  and  _285
REMARK  111  A    between atoms: _288  and  _290
REMARK  112  A    between atoms: _290  and  _291
REMARK  113  A    between atoms: _290  and  _293
REMARK  114  A    between atoms: _293  and  _294
REMARK  115  A    between atoms: _297  and  _299
REMARK  116  A    between atoms: _299  and  _300
REMARK  117  A    between atoms: _299  and  _302
REMARK  118  A    between atoms: _302  and  _303
REMARK  119  A    between atoms: _303  and  _304
REMARK  120  A    between atoms: _309  and  _311
REMARK  121  A    between atoms: _311  and  _312
REMARK  122  A    between atoms: _315  and  _317
REMARK  123  A    between atoms: _317  and  _318
REMARK  124  A    between atoms: _317  and  _320
REMARK  125  A    between atoms: _320  and  _321
REMARK  126  A    between atoms: _323  and  _325
REMARK  127  A    between atoms: _325  and  _326
REMARK  128  A    between atoms: _328  and  _330
REMARK  129  A    between atoms: _330  and  _331
REMARK  130  A    between atoms: _330  and  _333
REMARK  131  A    between atoms: _333  and  _334
REMARK  132  A    between atoms: _334  and  _335
REMARK  133  A    between atoms: _340  and  _342
REMARK  134  A    between atoms: _342  and  _343
REMARK  135  A    between atoms: _346  and  _347
REMARK  136  A    between atoms: _352  and  _354
REMARK  137  A    between atoms: _354  and  _355
REMARK  138  A    between atoms: _354  and  _357
REMARK  139  A    between atoms: _357  and  _358
REMARK  140  A    between atoms: _363  and  _364
REMARK  141  A    between atoms: _366  and  _368
REMARK  142  A    between atoms: _368  and  _369
REMARK  143  A    between atoms: _368  and  _371
REMARK  144  A    between atoms: _371  and  _372
REMARK  145  A    between atoms: _377  and  _378
REMARK  146  A    between atoms: _380  and  _382
REMARK  147  A    between atoms: _382  and  _383
REMARK  148  A    between atoms: _385  and  _387
REMARK  149  A    between atoms: _387  and  _388
REMARK  150  A    between atoms: _387  and  _390
REMARK  151  A    between atoms: _390  and  _391
REMARK  152  A    between atoms: _391  and  _392
REMARK  153  A    between atoms: _397  and  _399
REMARK  154  A    between atoms: _399  and  _400
REMARK  155  A    between atoms: _403  and  _405
REMARK  156  A    between atoms: _405  and  _406
REMARK  157  A    between atoms: _409  and  _411
REMARK  158  A    between atoms: _411  and  _412
REMARK  159  A    between atoms: _411  and  _414
REMARK  160  A    between atoms: _414  and  _415
REMARK  161  A    between atoms: _425  and  _427
REMARK  162  A    between atoms: _427  and  _428
REMARK  163  A    between atoms: _427  and  _430
REMARK  164  A    between atoms: _430  and  _431
REMARK  165  A    between atoms: _437  and  _439
REMARK  166  A    between atoms: _439  and  _440
REMARK  167  A    between atoms: _439  and  _442
REMARK  168  A    between atoms: _442  and  _443
REMARK  169  A    between atoms: _448  and  _449
REMARK  170  A    between atoms: _451  and  _453
REMARK  171  A    between atoms: _453  and  _454
REMARK  172  A    between atoms: _453  and  _456
REMARK  173  A    between atoms: _456  and  _457
REMARK  174  A    between atoms: _460  and  _462
REMARK  175  A    between atoms: _462  and  _463
REMARK  176  A    between atoms: _462  and  _465
REMARK  177  A    between atoms: _465  and  _466
REMARK  178  A    between atoms: _476  and  _478
REMARK  179  A    between atoms: _478  and  _479
REMARK  180  A    between atoms: _478  and  _481
REMARK  181  A    between atoms: _481  and  _482
REMARK  182  A    between atoms: _485  and  _487
REMARK  183  A    between atoms: _487  and  _488
REMARK  184  A    between atoms: _487  and  _490
REMARK  185  A    between atoms: _490  and  _491
REMARK  186  A    between atoms: _496  and  _497
REMARK  187  A    between atoms: _499  and  _501
REMARK  188  A    between atoms: _501  and  _502
REMARK  189  A    between atoms: _501  and  _504
REMARK  190  A    between atoms: _504  and  _505
REMARK  191  A    between atoms: _511  and  _513
REMARK  192  A    between atoms: _513  and  _514
REMARK  193  A    between atoms: _517  and  _519
REMARK  194  A    between atoms: _519  and  _520
REMARK  195  A    between atoms: _519  and  _522
REMARK  196  A    between atoms: _522  and  _523
REMARK  197  A    between atoms: _525  and  _527
REMARK  198  A    between atoms: _527  and  _528
REMARK  199  A    between atoms: _530  and  _532
REMARK  200  A    between atoms: _532  and  _533
REMARK  201  A    between atoms: _532  and  _535
REMARK  202  A    between atoms: _535  and  _536
REMARK  203  A    between atoms: _536  and  _537
REMARK  204  A    between atoms: _543  and  _544
REMARK  205  A    between atoms: _549  and  _551
REMARK  206  A    between atoms: _551  and  _552
REMARK  207  A    between atoms: _551  and  _554
REMARK  208  A    between atoms: _554  and  _555
REMARK  209  A    between atoms: _560  and  _561
REMARK  210  A    between atoms: _563  and  _565
REMARK  211  A    between atoms: _565  and  _566
REMARK  212  A    between atoms: _565  and  _568
REMARK  213  A    between atoms: _568  and  _569
REMARK  214  A    between atoms: _569  and  _570
REMARK  215  A    between atoms: _570  and  _571
REMARK  216  A    between atoms: _580  and  _582
REMARK  217  A    between atoms: _582  and  _583
REMARK  218  A    between atoms: _582  and  _585
REMARK  219  A    between atoms: _585  and  _586
REMARK  220  A    between atoms: _591  and  _592
REMARK  221  A    between atoms: _594  and  _596
REMARK  222  A    between atoms: _596  and  _597
REMARK  223  A    between atoms: _596  and  _599
REMARK  224  A    between atoms: _599  and  _600
REMARK  225  A    between atoms: _600  and  _601
REMARK  226  A    between atoms: _604  and  _606
REMARK  227  A    between atoms: _606  and  _607
REMARK  228  A    between atoms: _606  and  _609
REMARK  229  A    between atoms: _609  and  _610
REMARK  230  A    between atoms: _610  and  _611
REMARK  231  A    between atoms: _611  and  _612
REMARK                            x       y       z     vdW  Elec       q    Type
REMARK                         _______ _______ _______ _____ _____    ______ ____
ROOT
ATOM      1  C   SER A   2      24.989   6.304  17.725  0.00  0.00    +0.243 C 
ATOM      2  N   GLY A   3      26.031   5.914  18.453  0.00  0.00    -0.295 N 
ATOM      3  H   GLY A   3      26.622   6.630  18.921  0.00  0.00    +0.150 HD
ATOM      4  O   SER A   2      24.208   5.512  17.192  0.00  0.00    -0.273 OA
ENDROOT
BRANCH   1   5
ATOM      5  CA  SER A   2      24.812   7.808  17.546  0.00  0.00    +0.178 C 
BRANCH   5   8
ATOM      6  C   ALA A   1      24.838   9.282  19.493  0.00  0.00    +0.238 C 
ATOM      7  O   ALA A   1      23.617   9.247  19.605  0.00  0.00    -0.274 OA
ATOM      8  N   SER A   2      25.504   8.589  18.571  0.00  0.00    -0.295 N 
ATOM      9  H   SER A   2      26.544   8.604  18.580  0.00  0.00    +0.150 HD
BRANCH   6  10
ATOM     10  CA  ALA A   1      25.658  10.165  20.427  0.00  0.00    +0.145 C 
ATOM     11  CB  ALA A   1      25.700  11.604  19.898  0.00  0.00    +0.028 C 
BRANCH  10  12
ATOM     12  N   ALA A   1      27.006   9.668  20.683  0.00  0.00    -0.238 NA
ATOM     13  H   ALA A   1      27.822  10.165  20.272  0.00  0.00    +0.142 HD
ENDBRANCH  10  12
ENDBRANCH   6  10
ENDBRANCH   5   8
BRANCH   5  14
ATOM     14  CB  SER A   2      25.308   8.197  16.147  0.00  0.00    +0.166 C 
BRANCH  14  15
ATOM     15  OG  SER A   2      26.596   7.657  15.896  0.00  0.00    -0.380 OA
ATOM     16  H   SER A   2      27.235   8.004  16.568  0.00  0.00    +0.211 HD
ENDBRANCH  14  15
ENDBRANCH   5  14
ENDBRANCH   1   5
BRANCH   2  17
ATOM     17  CA  GLY A   3      26.361   4.505  18.608  0.00  0.00    +0.176 C 
BRANCH  17  18
ATOM     18  C   GLY A   3      26.097   3.951  19.996  0.00  0.00    +0.243 C 
ATOM     19  N   GLN A   4      26.269   4.780  21.023  0.00  0.00    -0.298 N 
ATOM     20  H   GLN A   4      26.596   5.752  20.852  0.00  0.00    +0.150 HD
ATOM     21  O   GLY A   3      25.752   2.778  20.137  0.00  0.00    -0.273 OA
BRANCH  19  22
ATOM     22  CA  GLN A   4      26.002   4.335  22.391  0.00  0.00    +0.137 C 
BRANCH  22  23
ATOM     23  C   GLN A   4      24.577   4.676  22.823  0.00  0.00    +0.227 C 
ATOM     24  O   GLN A   4      23.739   3.789  22.968  0.00  0.00    -0.286 OA
ENDBRANCH  22  23
BRANCH  22  25
ATOM     25  CB  GLN A   4      27.000   4.929  23.388  0.00  0.00    +0.037 C 
BRANCH  25  26
ATOM     26  CG  GLN A   4      26.770   4.421  24.818  0.00  0.00    +0.087 C 
BRANCH  26  27
ATOM     27  CD  GLN A   4      27.373   5.315  25.885  0.00  0.00    +0.219 C 
ATOM     28  NE2 GLN A   4      27.961   4.704  26.910  0.00  0.00    -0.329 N 
ATOM     29 HE21 GLN A   4      28.381   5.265  27.679  0.00  0.00    +0.145 HD
ATOM     30 HE22 GLN A   4      28.001   3.665  26.943  0.00  0.00    +0.145 HD
ATOM     31  OE1 GLN A   4      27.298   6.534  25.797  0.00  0.00    -0.275 OA
ENDBRANCH  26  27
ENDBRANCH  25  26
ENDBRANCH  22  25
ENDBRANCH  19  22
ENDBRANCH  17  18
ENDBRANCH   2  17
TORSDOF 13
REMARK  Name = ../refined-set-2016/4zb6/4zb6_pocket.pdb
REMARK  231 active torsions:
REMARK  status: ('A' for Active; 'I' for Inactive)
REMARK    1  A    between atoms: _1  and  _3
REMARK    2  A    between atoms: _3  and  _4
REMARK    3  A    between atoms: _3  and  _6
REMARK    4  A    between atoms: _6  and  _7
REMARK    5  A    between atoms: _10  and  _12
REMARK    6  A    between atoms: _12  and  _13
REMARK    7  A    between atoms: _12  and  _15
REMARK    8  A    between atoms: _15  and  _16
REMARK    9  A    between atoms: _21  and  _23
REMARK   10  A    between atoms: _23  and  _24
REMARK   11  A    between atoms: _23  and  _26
REMARK   12  A    between atoms: _26  and  _27
REMARK   13  A    between atoms: _29  and  _31
REMARK   14  A    between atoms: _31  and  _32
REMARK   15  A    between atoms: _35  and  _36
REMARK   16  A    between atoms: _41  and  _43
REMARK   17  A    between atoms: _43  and  _44
REMARK   18  A    between atoms: _43  and  _46
REMARK   19  A    between atoms: _46  and  _47
REMARK   20  A    between atoms: _52  and  _54
REMARK   21  A    between atoms: _54  and  _55
REMARK   22  A    between atoms: _57  and  _59
REMARK   23  A    between atoms: _59  and  _60
REMARK   24  A    between atoms: _59  and  _62
REMARK   25  A    between atoms: _62  and  _63
REMARK   26  A    between atoms: _73  and  _75
REMARK   27  A    between atoms: _75  and  _76
REMARK   28  A    between atoms: _75  and  _78
REMARK   29  A    between atoms: _78  and  _79
REMARK   30  A    between atoms: _79  and  _80
REMARK   31  A    between atoms: _80  and  _81
REMARK   32  A    between atoms: _81  and  _82
REMARK   33  A    between atoms: _86  and  _88
REMARK   34  A    between atoms: _88  and  _89
REMARK   35  A    between atoms: _88  and  _91
REMARK   36  A    between atoms: _94  and  _96
REMARK   37  A    between atoms: _96  and  _97
REMARK   38  A    between atoms: _96  and  _99
REMARK   39  A    between atoms: _99  and  _100
REMARK   40  A    between atoms: _103  and  _105
REMARK   41  A    between atoms: _105  and  _106
REMARK   42  A    between atoms: _105  and  _108
REMARK   43  A    between atoms: _108  and  _109
REMARK   44  A    between atoms: _112  and  _114
REMARK   45  A    between atoms: _114  and  _115
REMARK   46  A    between atoms: _114  and  _117
REMARK   47  A    between atoms: _117  and  _118
REMARK   48  A    between atoms: _118  and  _119
REMARK   49  A    between atoms: _121  and  _123
REMARK   50  A    between atoms: _123  and  _124
REMARK   51  A    between atoms: _126  and  _128
REMARK   52  A    between atoms: _128  and  _129
REMARK   53  A    between atoms: _128  and  _131
REMARK   54  A    between atoms: _131  and  _132
REMARK   55  A    between atoms: _137  and  _139
REMARK   56  A    between atoms: _139  and  _140
REMARK   57  A    between atoms: _139  and  _142
REMARK   58  A    between atoms: _142  and  _143
REMARK   59  A    between atoms: _143  and  _144
REMARK   60  A    between atoms: _144  and  _145
REMARK   61  A    between atoms: _145  and  _146
REMARK   62  A    between atoms: _150  and  _152
REMARK   63  A    between atoms: _152  and  _153
REMARK   64  A    between atoms: _152  and  _155
REMARK   65  A    between atoms: _155  and  _156
REMARK   66  A    between atoms: _161  and  _162
REMARK   67  A    between atoms: _164  and  _166
REMARK   68  A    between atoms: _166  and  _167
REMARK   69  A    between atoms: _166  and  _169
REMARK   70  A    between atoms: _169  and  _170
REMARK   71  A    between atoms: _175  and  _177
REMARK   72  A    between atoms: _177  and  _178
REMARK   73  A    between atoms: _177  and  _180
REMARK   74  A    between atoms: _180  and  _181
REMARK   75  A    between atoms: _186  and  _188
REMARK   76  A    between atoms: _188  and  _189
REMARK   77  A    between atoms: _191  and  _193
REMARK   78  A    between atoms: _193  and  _194
REMARK   79  A    between atoms: _193  and  _196
REMARK   80  A    between atoms: _196  and  _197
REMARK   81  A    between atoms: _197  and  _198
REMARK   82  A    between atoms: _198  and  _199
REMARK   83  A    between atoms: _208  and  _210
REMARK   84  A    between atoms: _210  and  _211
REMARK   85  A    between atoms: _210  and  _213
REMARK   86  A    between atoms: _217  and  _218
REMARK   87  A    between atoms: _223  and  _225
REMARK   88  A    between atoms: _225  and  _226
REMARK   89  A    between atoms: _229  and  _231
REMARK   90  A    between atoms: _231  and  _232
REMARK   91  A    between atoms: _231  and  _234
REMARK   92  A    between atoms: _234  and  _235
REMARK   93  A    between atoms: _245  and  _247
REMARK   94  A    between atoms: _247  and  _248
REMARK   95  A    between atoms: _247  and  _250
REMARK   96  A    between atoms: _250  and  _251
REMARK   97  A    between atoms: _251  and  _252
REMARK   98  A    between atoms: _255  and  _257
REMARK   99  A    between atoms: _257  and  _258
REMARK  100  A    between atoms: _257  and  _260
REMARK  101  A    between atoms: _260  and  _261
REMARK  102  A    between atoms: _263  and  _265
REMARK  103  A    between atoms: _265  and  _266
REMARK  104  A    between atoms: _265  and  _268
REMARK  105  A    between atoms: _268  and  _269
REMARK  106  A    between atoms: _274  and  _276
REMARK  107  A    between atoms: _276  and  _277
REMARK  108  A    between atoms: _280  and  _282
REMARK  109  A    between atoms: _282  and  _283
REMARK  110  A    between atoms: _282  and  _285
REMARK  111  A    between atoms: _288  and  _290
REMARK  112  A    between atoms: _290  and  _291
REMARK  113  A    between atoms: _290  and  _293
REMARK  114  A    between atoms: _293  and  _294
REMARK  115  A    between atoms: _297  and  _299
REMARK  116  A    between atoms: _299  and  _300
REMARK  117  A    between atoms: _299  and  _302
REMARK  118  A    between atoms: _302  and  _303
REMARK  119  A    between atoms: _303  and  _304
REMARK  120  A    between atoms: _309  and  _311
REMARK  121  A    between atoms: _311  and  _312
REMARK  122  A    between atoms: _315  and  _317
REMARK  123  A    between atoms: _317  and  _318
REMARK  124  A    between atoms: _317  and  _320
REMARK  125  A    between atoms: _320  and  _321
REMARK  126  A    between atoms: _323  and  _325
REMARK  127  A    between atoms: _325  and  _326
REMARK  128  A    between atoms: _328  and  _330
REMARK  129  A    between atoms: _330  and  _331
REMARK  130  A    between atoms: _330  and  _333
REMARK  131  A    between atoms: _333  and  _334
REMARK  132  A    between atoms: _334  and  _335
REMARK  133  A    between atoms: _340  and  _342
REMARK  134  A    between atoms: _342  and  _343
REMARK  135  A    between atoms: _346  and  _347
REMARK  136  A    between atoms: _352  and  _354
REMARK  137  A    between atoms: _354  and  _355
REMARK  138  A    between atoms: _354  and  _357
REMARK  139  A    between atoms: _357  and  _358
REMARK  140  A    between atoms: _363  and  _364
REMARK  141  A    between atoms: _366  and  _368
REMARK  142  A    between atoms: _368  and  _369
REMARK  143  A    between atoms: _368  and  _371
REMARK  144  A    between atoms: _371  and  _372
REMARK  145  A    between atoms: _377  and  _378
REMARK  146  A    between atoms: _380  and  _382
REMARK  147  A    between atoms: _382  and  _383
REMARK  148  A    between atoms: _385  and  _387
REMARK  149  A    between atoms: _387  and  _388
REMARK  150  A    between atoms: _387  and  _390
REMARK  151  A    between atoms: _390  and  _391
REMARK  152  A    between atoms: _391  and  _392
REMARK  153  A    between atoms: _397  and  _399
REMARK  154  A    between atoms: _399  and  _400
REMARK  155  A    between atoms: _403  and  _405
REMARK  156  A    between atoms: _405  and  _406
REMARK  157  A    between atoms: _409  and  _411
REMARK  158  A    between atoms: _411  and  _412
REMARK  159  A    between atoms: _411  and  _414
REMARK  160  A    between atoms: _414  and  _415
REMARK  161  A    between atoms: _425  and  _427
REMARK  162  A    between atoms: _427  and  _428
REMARK  163  A    between atoms: _427  and  _430
REMARK  164  A    between atoms: _430  and  _431
REMARK  165  A    between atoms: _437  and  _439
REMARK  166  A    between atoms: _439  and  _440
REMARK  167  A    between atoms: _439  and  _442
REMARK  168  A    between atoms: _442  and  _443
REMARK  169  A    between atoms: _448  and  _449
REMARK  170  A    between atoms: _451  and  _453
REMARK  171  A    between atoms: _453  and  _454
REMARK  172  A    between atoms: _453  and  _456
REMARK  173  A    between atoms: _456  and  _457
REMARK  174  A    between atoms: _460  and  _462
REMARK  175  A    between atoms: _462  and  _463
REMARK  176  A    between atoms: _462  and  _465
REMARK  177  A    between atoms: _465  and  _466
REMARK  178  A    between atoms: _476  and  _478
REMARK  179  A    between atoms: _478  and  _479
REMARK  180  A    between atoms: _478  and  _481
REMARK  181  A    between atoms: _481  and  _482
REMARK  182  A    between atoms: _485  and  _487
REMARK  183  A    between atoms: _487  and  _488
REMARK  184  A    between atoms: _487  and  _490
REMARK  185  A    between atoms: _490  and  _491
REMARK  186  A    between atoms: _496  and  _497
REMARK  187  A    between atoms: _499  and  _501
REMARK  188  A    between atoms: _501  and  _502
REMARK  189  A    between atoms: _501  and  _504
REMARK  190  A    between atoms: _504  and  _505
REMARK  191  A    between atoms: _511  and  _513
REMARK  192  A    between atoms: _513  and  _514
REMARK  193  A    between atoms: _517  and  _519
REMARK  194  A    between atoms: _519  and  _520
REMARK  195  A    between atoms: _519  and  _522
REMARK  196  A    between atoms: _522  and  _523
REMARK  197  A    between atoms: _525  and  _527
REMARK  198  A    between atoms: _527  and  _528
REMARK  199  A    between atoms: _530  and  _532
REMARK  200  A    between atoms: _532  and  _533
REMARK  201  A    between atoms: _532  and  _535
REMARK  202  A    between atoms: _535  and  _536
REMARK  203  A    between atoms: _536  and  _537
REMARK  204  A    between atoms: _543  and  _544
REMARK  205  A    between atoms: _549  and  _551
REMARK  206  A    between atoms: _551  and  _552
REMARK  207  A    between atoms: _551  and  _554
REMARK  208  A    between atoms: _554  and  _555
REMARK  209  A    between atoms: _560  and  _561
REMARK  210  A    between atoms: _563  and  _565
REMARK  211  A    between atoms: _565  and  _566
REMARK  212  A    between atoms: _565  and  _568
REMARK  213  A    between atoms: _568  and  _569
REMARK  214  A    between atoms: _569  and  _570
REMARK  215  A    between atoms: _570  and  _571
REMARK  216  A    between atoms: _580  and  _582
REMARK  217  A    between atoms: _582  and  _583
REMARK  218  A    between atoms: _582  and  _585
REMARK  219  A    between atoms: _585  and  _586
REMARK  220  A    between atoms: _591  and  _592
REMARK  221  A    between atoms: _594  and  _596
REMARK  222  A    between atoms: _596  and  _597
REMARK  223  A    between atoms: _596  and  _599
REMARK  224  A    between atoms: _599  and  _600
REMARK  225  A    between atoms: _600  and  _601
REMARK  226  A    between atoms: _604  and  _606
REMARK  227  A    between atoms: _606  and  _607
REMARK  228  A    between atoms: _606  and  _609
REMARK  229  A    between atoms: _609  and  _610
REMARK  230  A    between atoms: _610  and  _611
REMARK  231  A    between atoms: _611  and  _612
REMARK                            x       y       z     vdW  Elec       q    Type
REMARK                         _______ _______ _______ _____ _____    ______ ____
ROOT
ATOM      1  CA  TYR A   2      21.234   1.703  21.093  0.00  0.00    +0.141 C 
ENDROOT
BRANCH   1   4
ATOM      2  C   PRO A   1      20.206   3.903  21.120  0.00  0.00    +0.239 C 
ATOM      3  O   PRO A   1      19.101   3.438  21.376  0.00  0.00    -0.274 OA
ATOM      4  N   TYR A   2      21.297   3.158  20.979  0.00  0.00    -0.298 N 
ATOM      5  H   TYR A   2      22.209   3.618  20.785  0.00  0.00    +0.150 HD
BRANCH   2   7
ATOM      6  N   PRO A   1      21.613   5.911  21.563  0.00  0.00    -0.210 NA
ATOM      7  CA  PRO A   1      20.364   5.414  20.976  0.00  0.00    +0.149 C 
ATOM      8  CB  PRO A   1      20.488   5.816  19.502  0.00  0.00    +0.028 C 
ATOM      9  CG  PRO A   1      21.392   7.013  19.526  0.00  0.00    +0.021 C 
ATOM     10  CD  PRO A   1      22.402   6.688  20.594  0.00  0.00    +0.089 C 
ENDBRANCH   2   7
ENDBRANCH   1   4
BRANCH   1  11
ATOM     11  C   TYR A   2      21.022   1.242  22.534  0.00  0.00    +0.227 C 
ATOM     12  O   TYR A   2      20.222   0.338  22.781  0.00  0.00    -0.286 OA
ENDBRANCH   1  11
BRANCH   1  13
ATOM     13  CB  TYR A   2      22.483   1.055  20.483  0.00  0.00    +0.054 C 
BRANCH  13  14
ATOM     14  CG  TYR A   2      22.529   1.133  18.967  0.00  0.00    -0.020 A 
ATOM     15  CD2 TYR A   2      23.097   2.228  18.326  0.00  0.00    -0.001 A 
ATOM     16  CE2 TYR A   2      23.140   2.307  16.946  0.00  0.00    +0.036 A 
ATOM     17  CZ  TYR A   2      22.615   1.277  16.184  0.00  0.00    +0.134 A 
ATOM     18  CE1 TYR A   2      22.044   0.178  16.795  0.00  0.00    +0.036 A 
ATOM     19  CD1 TYR A   2      22.002   0.112  18.182  0.00  0.00    -0.001 A 
BRANCH  17  20
ATOM     20  OH  TYR A   2      22.660   1.348  14.809  0.00  0.00    -0.506 OA
ATOM     21  HH  TYR A   2      21.739   1.322  14.448  0.00  0.00    +0.292 HD
ENDBRANCH  17  20
ENDBRANCH  13  14
ENDBRANCH   1  13
TORSDOF 6
REMARK  Name = ../refined-set-2016/4zb6/4zb6_pocket.pdb
REMARK  231 active torsions:
REMARK  status: ('A' for Active; 'I' for Inactive)
REMARK    1  A    between atoms: _1  and  _3
REMARK    2  A    between atoms: _3  and  _4
REMARK    3  A    between atoms: _3  and  _6
REMARK    4  A    between atoms: _6  and  _7
REMARK    5  A    between atoms: _10  and  _12
REMARK    6  A    between atoms: _12  and  _13
REMARK    7  A    between atoms: _12  and  _15
REMARK    8  A    between atoms: _15  and  _16
REMARK    9  A    between atoms: _21  and  _23
REMARK   10  A    between atoms: _23  and  _24
REMARK   11  A    between atoms: _23  and  _26
REMARK   12  A    between atoms: _26  and  _27
REMARK   13  A    between atoms: _29  and  _31
REMARK   14  A    between atoms: _31  and  _32
REMARK   15  A    between atoms: _35  and  _36
REMARK   16  A    between atoms: _41  and  _43
REMARK   17  A    between atoms: _43  and  _44
REMARK   18  A    between atoms: _43  and  _46
REMARK   19  A    between atoms: _46  and  _47
REMARK   20  A    between atoms: _52  and  _54
REMARK   21  A    between atoms: _54  and  _55
REMARK   22  A    between atoms: _57  and  _59
REMARK   23  A    between atoms: _59  and  _60
REMARK   24  A    between atoms: _59  and  _62
REMARK   25  A    between atoms: _62  and  _63
REMARK   26  A    between atoms: _73  and  _75
REMARK   27  A    between atoms: _75  and  _76
REMARK   28  A    between atoms: _75  and  _78
REMARK   29  A    between atoms: _78  and  _79
REMARK   30  A    between atoms: _79  and  _80
REMARK   31  A    between atoms: _80  and  _81
REMARK   32  A    between atoms: _81  and  _82
REMARK   33  A    between atoms: _86  and  _88
REMARK   34  A    between atoms: _88  and  _89
REMARK   35  A    between atoms: _88  and  _91
REMARK   36  A    between atoms: _94  and  _96
REMARK   37  A    between atoms: _96  and  _97
REMARK   38  A    between atoms: _96  and  _99
REMARK   39  A    between atoms: _99  and  _100
REMARK   40  A    between atoms: _103  and  _105
REMARK   41  A    between atoms: _105  and  _106
REMARK   42  A    between atoms: _105  and  _108
REMARK   43  A    between atoms: _108  and  _109
REMARK   44  A    between atoms: _112  and  _114
REMARK   45  A    between atoms: _114  and  _115
REMARK   46  A    between atoms: _114  and  _117
REMARK   47  A    between atoms: _117  and  _118
REMARK   48  A    between atoms: _118  and  _119
REMARK   49  A    between atoms: _121  and  _123
REMARK   50  A    between atoms: _123  and  _124
REMARK   51  A    between atoms: _126  and  _128
REMARK   52  A    between atoms: _128  and  _129
REMARK   53  A    between atoms: _128  and  _131
REMARK   54  A    between atoms: _131  and  _132
REMARK   55  A    between atoms: _137  and  _139
REMARK   56  A    between atoms: _139  and  _140
REMARK   57  A    between atoms: _139  and  _142
REMARK   58  A    between atoms: _142  and  _143
REMARK   59  A    between atoms: _143  and  _144
REMARK   60  A    between atoms: _144  and  _145
REMARK   61  A    between atoms: _145  and  _146
REMARK   62  A    between atoms: _150  and  _152
REMARK   63  A    between atoms: _152  and  _153
REMARK   64  A    between atoms: _152  and  _155
REMARK   65  A    between atoms: _155  and  _156
REMARK   66  A    between atoms: _161  and  _162
REMARK   67  A    between atoms: _164  and  _166
REMARK   68  A    between atoms: _166  and  _167
REMARK   69  A    between atoms: _166  and  _169
REMARK   70  A    between atoms: _169  and  _170
REMARK   71  A    between atoms: _175  and  _177
REMARK   72  A    between atoms: _177  and  _178
REMARK   73  A    between atoms: _177  and  _180
REMARK   74  A    between atoms: _180  and  _181
REMARK   75  A    between atoms: _186  and  _188
REMARK   76  A    between atoms: _188  and  _189
REMARK   77  A    between atoms: _191  and  _193
REMARK   78  A    between atoms: _193  and  _194
REMARK   79  A    between atoms: _193  and  _196
REMARK   80  A    between atoms: _196  and  _197
REMARK   81  A    between atoms: _197  and  _198
REMARK   82  A    between atoms: _198  and  _199
REMARK   83  A    between atoms: _208  and  _210
REMARK   84  A    between atoms: _210  and  _211
REMARK   85  A    between atoms: _210  and  _213
REMARK   86  A    between atoms: _217  and  _218
REMARK   87  A    between atoms: _223  and  _225
REMARK   88  A    between atoms: _225  and  _226
REMARK   89  A    between atoms: _229  and  _231
REMARK   90  A    between atoms: _231  and  _232
REMARK   91  A    between atoms: _231  and  _234
REMARK   92  A    between atoms: _234  and  _235
REMARK   93  A    between atoms: _245  and  _247
REMARK   94  A    between atoms: _247  and  _248
REMARK   95  A    between atoms: _247  and  _250
REMARK   96  A    between atoms: _250  and  _251
REMARK   97  A    between atoms: _251  and  _252
REMARK   98  A    between atoms: _255  and  _257
REMARK   99  A    between atoms: _257  and  _258
REMARK  100  A    between atoms: _257  and  _260
REMARK  101  A    between atoms: _260  and  _261
REMARK  102  A    between atoms: _263  and  _265
REMARK  103  A    between atoms: _265  and  _266
REMARK  104  A    between atoms: _265  and  _268
REMARK  105  A    between atoms: _268  and  _269
REMARK  106  A    between atoms: _274  and  _276
REMARK  107  A    between atoms: _276  and  _277
REMARK  108  A    between atoms: _280  and  _282
REMARK  109  A    between atoms: _282  and  _283
REMARK  110  A    between atoms: _282  and  _285
REMARK  111  A    between atoms: _288  and  _290
REMARK  112  A    between atoms: _290  and  _291
REMARK  113  A    between atoms: _290  and  _293
REMARK  114  A    between atoms: _293  and  _294
REMARK  115  A    between atoms: _297  and  _299
REMARK  116  A    between atoms: _299  and  _300
REMARK  117  A    between atoms: _299  and  _302
REMARK  118  A    between atoms: _302  and  _303
REMARK  119  A    between atoms: _303  and  _304
REMARK  120  A    between atoms: _309  and  _311
REMARK  121  A    between atoms: _311  and  _312
REMARK  122  A    between atoms: _315  and  _317
REMARK  123  A    between atoms: _317  and  _318
REMARK  124  A    between atoms: _317  and  _320
REMARK  125  A    between atoms: _320  and  _321
REMARK  126  A    between atoms: _323  and  _325
REMARK  127  A    between atoms: _325  and  _326
REMARK  128  A    between atoms: _328  and  _330
REMARK  129  A    between atoms: _330  and  _331
REMARK  130  A    between atoms: _330  and  _333
REMARK  131  A    between atoms: _333  and  _334
REMARK  132  A    between atoms: _334  and  _335
REMARK  133  A    between atoms: _340  and  _342
REMARK  134  A    between atoms: _342  and  _343
REMARK  135  A    between atoms: _346  and  _347
REMARK  136  A    between atoms: _352  and  _354
REMARK  137  A    between atoms: _354  and  _355
REMARK  138  A    between atoms: _354  and  _357
REMARK  139  A    between atoms: _357  and  _358
REMARK  140  A    between atoms: _363  and  _364
REMARK  141  A    between atoms: _366  and  _368
REMARK  142  A    between atoms: _368  and  _369
REMARK  143  A    between atoms: _368  and  _371
REMARK  144  A    between atoms: _371  and  _372
REMARK  145  A    between atoms: _377  and  _378
REMARK  146  A    between atoms: _380  and  _382
REMARK  147  A    between atoms: _382  and  _383
REMARK  148  A    between atoms: _385  and  _387
REMARK  149  A    between atoms: _387  and  _388
REMARK  150  A    between atoms: _387  and  _390
REMARK  151  A    between atoms: _390  and  _391
REMARK  152  A    between atoms: _391  and  _392
REMARK  153  A    between atoms: _397  and  _399
REMARK  154  A    between atoms: _399  and  _400
REMARK  155  A    between atoms: _403  and  _405
REMARK  156  A    between atoms: _405  and  _406
REMARK  157  A    between atoms: _409  and  _411
REMARK  158  A    between atoms: _411  and  _412
REMARK  159  A    between atoms: _411  and  _414
REMARK  160  A    between atoms: _414  and  _415
REMARK  161  A    between atoms: _425  and  _427
REMARK  162  A    between atoms: _427  and  _428
REMARK  163  A    between atoms: _427  and  _430
REMARK  164  A    between atoms: _430  and  _431
REMARK  165  A    between atoms: _437  and  _439
REMARK  166  A    between atoms: _439  and  _440
REMARK  167  A    between atoms: _439  and  _442
REMARK  168  A    between atoms: _442  and  _443
REMARK  169  A    between atoms: _448  and  _449
REMARK  170  A    between atoms: _451  and  _453
REMARK  171  A    between atoms: _453  and  _454
REMARK  172  A    between atoms: _453  and  _456
REMARK  173  A    between atoms: _456  and  _457
REMARK  174  A    between atoms: _460  and  _462
REMARK  175  A    between atoms: _462  and  _463
REMARK  176  A    between atoms: _462  and  _465
REMARK  177  A    between atoms: _465  and  _466
REMARK  178  A    between atoms: _476  and  _478
REMARK  179  A    between atoms: _478  and  _479
REMARK  180  A    between atoms: _478  and  _481
REMARK  181  A    between atoms: _481  and  _482
REMARK  182  A    between atoms: _485  and  _487
REMARK  183  A    between atoms: _487  and  _488
REMARK  184  A    between atoms: _487  and  _490
REMARK  185  A    between atoms: _490  and  _491
REMARK  186  A    between atoms: _496  and  _497
REMARK  187  A    between atoms: _499  and  _501
REMARK  188  A    between atoms: _501  and  _502
REMARK  189  A    between atoms: _501  and  _504
REMARK  190  A    between atoms: _504  and  _505
REMARK  191  A    between atoms: _511  and  _513
REMARK  192  A    between atoms: _513  and  _514
REMARK  193  A    between atoms: _517  and  _519
REMARK  194  A    between atoms: _519  and  _520
REMARK  195  A    between atoms: _519  and  _522
REMARK  196  A    between atoms: _522  and  _523
REMARK  197  A    between atoms: _525  and  _527
REMARK  198  A    between atoms: _527  and  _528
REMARK  199  A    between atoms: _530  and  _532
REMARK  200  A    between atoms: _532  and  _533
REMARK  201  A    between atoms: _532  and  _535
REMARK  202  A    between atoms: _535  and  _536
REMARK  203  A    between atoms: _536  and  _537
REMARK  204  A    between atoms: _543  and  _544
REMARK  205  A    between atoms: _549  and  _551
REMARK  206  A    between atoms: _551  and  _552
REMARK  207  A    between atoms: _551  and  _554
REMARK  208  A    between atoms: _554  and  _555
REMARK  209  A    between atoms: _560  and  _561
REMARK  210  A    between atoms: _563  and  _565
REMARK  211  A    between atoms: _565  and  _566
REMARK  212  A    between atoms: _565  and  _568
REMARK  213  A    between atoms: _568  and  _569
REMARK  214  A    between atoms: _569  and  _570
REMARK  215  A    between atoms: _570  and  _571
REMARK  216  A    between atoms: _580  and  _582
REMARK  217  A    between atoms: _582  and  _583
REMARK  218  A    between atoms: _582  and  _585
REMARK  219  A    between atoms: _585  and  _586
REMARK  220  A    between atoms: _591  and  _592
REMARK  221  A    between atoms: _594  and  _596
REMARK  222  A    between atoms: _596  and  _597
REMARK  223  A    between atoms: _596  and  _599
REMARK  224  A    between atoms: _599  and  _600
REMARK  225  A    between atoms: _600  and  _601
REMARK  226  A    between atoms: _604  and  _606
REMARK  227  A    between atoms: _606  and  _607
REMARK  228  A    between atoms: _606  and  _609
REMARK  229  A    between atoms: _609  and  _610
REMARK  230  A    between atoms: _610  and  _611
REMARK  231  A    between atoms: _611  and  _612
REMARK                            x       y       z     vdW  Elec       q    Type
REMARK                         _______ _______ _______ _____ _____    ______ ____
ROOT
ATOM      1  C   ARG A   1      20.342  -6.321  20.773  0.00  0.00    +0.238 C 
ATOM      2  N   TYR A   2      19.684  -5.581  21.651  0.00  0.00    -0.298 N 
ATOM      3  H   TYR A   2      18.726  -5.851  21.954  0.00  0.00    +0.150 HD
ATOM      4  O   ARG A   1      21.512  -6.086  20.467  0.00  0.00    -0.274 OA
ENDROOT
BRANCH   1   5
ATOM      5  CA  ARG A   1      19.592  -7.513  20.167  0.00  0.00    +0.145 C 
BRANCH   5   6
ATOM      6  N   ARG A   1      18.952  -8.336  21.188  0.00  0.00    -0.238 NA
ATOM      7  H   ARG A   1      17.939  -8.552  21.094  0.00  0.00    +0.142 HD
ENDBRANCH   5   6
BRANCH   5   8
ATOM      8  CB  ARG A   1      18.550  -7.036  19.150  0.00  0.00    +0.030 C 
BRANCH   8   9
ATOM      9  CG  ARG A   1      18.977  -5.834  18.327  0.00  0.00    +0.045 C 
BRANCH   9  10
ATOM     10  CD  ARG A   1      17.979  -5.536  17.220  0.00  0.00    +0.174 C 
BRANCH  10  11
ATOM     11  NE  ARG A   1      18.342  -4.332  16.480  0.00  0.00    -0.265 N 
ATOM     12  HE  ARG A   1      17.803  -3.463  16.670  0.00  0.00    +0.259 HD
ATOM     13  CZ  ARG A   1      19.318  -4.274  15.577  0.00  0.00    +0.342 C 
ATOM     14  NH2 ARG A   1      20.033  -5.358  15.294  0.00  0.00    -0.292 N 
ATOM     15 HH21 ARG A   1      19.831  -6.256  15.779  0.00  0.00    +0.255 HD
ATOM     16 HH22 ARG A   1      20.795  -5.309  14.588  0.00  0.00    +0.255 HD
ATOM     17  NH1 ARG A   1      19.586  -3.129  14.960  0.00  0.00    -0.292 N 
ATOM     18 HH11 ARG A   1      19.033  -2.277  15.182  0.00  0.00    +0.255 HD
ATOM     19 HH12 ARG A   1      20.349  -3.085  14.255  0.00  0.00    +0.255 HD
ENDBRANCH  10  11
ENDBRANCH   9  10
ENDBRANCH   8   9
ENDBRANCH   5   8
ENDBRANCH   1   5
BRANCH   2  20
ATOM     20  CA  TYR A   2      20.318  -4.384  22.187  0.00  0.00    +0.141 C 
BRANCH  20  21
ATOM     21  C   TYR A   2      21.281  -4.676  23.336  0.00  0.00    +0.227 C 
ATOM     22  O   TYR A   2      22.242  -3.936  23.542  0.00  0.00    -0.286 OA
ENDBRANCH  20  21
BRANCH  20  23
ATOM     23  CB  TYR A   2      19.280  -3.308  22.508  0.00  0.00    +0.054 C 
BRANCH  23  24
ATOM     24  CG  TYR A   2      18.515  -2.940  21.264  0.00  0.00    -0.020 A 
ATOM     25  CD2 TYR A   2      17.212  -3.374  21.071  0.00  0.00    -0.001 A 
ATOM     26  CE2 TYR A   2      16.520  -3.055  19.916  0.00  0.00    +0.036 A 
ATOM     27  CZ  TYR A   2      17.141  -2.311  18.932  0.00  0.00    +0.134 A 
ATOM     28  CE1 TYR A   2      18.443  -1.888  19.093  0.00  0.00    +0.036 A 
ATOM     29  CD1 TYR A   2      19.120  -2.200  20.250  0.00  0.00    -0.001 A 
BRANCH  27  30
ATOM     30  OH  TYR A   2      16.466  -1.994  17.775  0.00  0.00    -0.506 OA
ATOM     31  HH  TYR A   2      17.056  -1.461  17.185  0.00  0.00    +0.292 HD
ENDBRANCH  27  30
ENDBRANCH  23  24
ENDBRANCH  20  23
ENDBRANCH   2  20
TORSDOF 11
REMARK  Name = ../refined-set-2016/4zb6/4zb6_pocket.pdb
REMARK  231 active torsions:
REMARK  status: ('A' for Active; 'I' for Inactive)
REMARK    1  A    between atoms: _1  and  _3
REMARK    2  A    between atoms: _3  and  _4
REMARK    3  A    between atoms: _3  and  _6
REMARK    4  A    between atoms: _6  and  _7
REMARK    5  A    between atoms: _10  and  _12
REMARK    6  A    between atoms: _12  and  _13
REMARK    7  A    between atoms: _12  and  _15
REMARK    8  A    between atoms: _15  and  _16
REMARK    9  A    between atoms: _21  and  _23
REMARK   10  A    between atoms: _23  and  _24
REMARK   11  A    between atoms: _23  and  _26
REMARK   12  A    between atoms: _26  and  _27
REMARK   13  A    between atoms: _29  and  _31
REMARK   14  A    between atoms: _31  and  _32
REMARK   15  A    between atoms: _35  and  _36
REMARK   16  A    between atoms: _41  and  _43
REMARK   17  A    between atoms: _43  and  _44
REMARK   18  A    between atoms: _43  and  _46
REMARK   19  A    between atoms: _46  and  _47
REMARK   20  A    between atoms: _52  and  _54
REMARK   21  A    between atoms: _54  and  _55
REMARK   22  A    between atoms: _57  and  _59
REMARK   23  A    between atoms: _59  and  _60
REMARK   24  A    between atoms: _59  and  _62
REMARK   25  A    between atoms: _62  and  _63
REMARK   26  A    between atoms: _73  and  _75
REMARK   27  A    between atoms: _75  and  _76
REMARK   28  A    between atoms: _75  and  _78
REMARK   29  A    between atoms: _78  and  _79
REMARK   30  A    between atoms: _79  and  _80
REMARK   31  A    between atoms: _80  and  _81
REMARK   32  A    between atoms: _81  and  _82
REMARK   33  A    between atoms: _86  and  _88
REMARK   34  A    between atoms: _88  and  _89
REMARK   35  A    between atoms: _88  and  _91
REMARK   36  A    between atoms: _94  and  _96
REMARK   37  A    between atoms: _96  and  _97
REMARK   38  A    between atoms: _96  and  _99
REMARK   39  A    between atoms: _99  and  _100
REMARK   40  A    between atoms: _103  and  _105
REMARK   41  A    between atoms: _105  and  _106
REMARK   42  A    between atoms: _105  and  _108
REMARK   43  A    between atoms: _108  and  _109
REMARK   44  A    between atoms: _112  and  _114
REMARK   45  A    between atoms: _114  and  _115
REMARK   46  A    between atoms: _114  and  _117
REMARK   47  A    between atoms: _117  and  _118
REMARK   48  A    between atoms: _118  and  _119
REMARK   49  A    between atoms: _121  and  _123
REMARK   50  A    between atoms: _123  and  _124
REMARK   51  A    between atoms: _126  and  _128
REMARK   52  A    between atoms: _128  and  _129
REMARK   53  A    between atoms: _128  and  _131
REMARK   54  A    between atoms: _131  and  _132
REMARK   55  A    between atoms: _137  and  _139
REMARK   56  A    between atoms: _139  and  _140
REMARK   57  A    between atoms: _139  and  _142
REMARK   58  A    between atoms: _142  and  _143
REMARK   59  A    between atoms: _143  and  _144
REMARK   60  A    between atoms: _144  and  _145
REMARK   61  A    between atoms: _145  and  _146
REMARK   62  A    between atoms: _150  and  _152
REMARK   63  A    between atoms: _152  and  _153
REMARK   64  A    between atoms: _152  and  _155
REMARK   65  A    between atoms: _155  and  _156
REMARK   66  A    between atoms: _161  and  _162
REMARK   67  A    between atoms: _164  and  _166
REMARK   68  A    between atoms: _166  and  _167
REMARK   69  A    between atoms: _166  and  _169
REMARK   70  A    between atoms: _169  and  _170
REMARK   71  A    between atoms: _175  and  _177
REMARK   72  A    between atoms: _177  and  _178
REMARK   73  A    between atoms: _177  and  _180
REMARK   74  A    between atoms: _180  and  _181
REMARK   75  A    between atoms: _186  and  _188
REMARK   76  A    between atoms: _188  and  _189
REMARK   77  A    between atoms: _191  and  _193
REMARK   78  A    between atoms: _193  and  _194
REMARK   79  A    between atoms: _193  and  _196
REMARK   80  A    between atoms: _196  and  _197
REMARK   81  A    between atoms: _197  and  _198
REMARK   82  A    between atoms: _198  and  _199
REMARK   83  A    between atoms: _208  and  _210
REMARK   84  A    between atoms: _210  and  _211
REMARK   85  A    between atoms: _210  and  _213
REMARK   86  A    between atoms: _217  and  _218
REMARK   87  A    between atoms: _223  and  _225
REMARK   88  A    between atoms: _225  and  _226
REMARK   89  A    between atoms: _229  and  _231
REMARK   90  A    between atoms: _231  and  _232
REMARK   91  A    between atoms: _231  and  _234
REMARK   92  A    between atoms: _234  and  _235
REMARK   93  A    between atoms: _245  and  _247
REMARK   94  A    between atoms: _247  and  _248
REMARK   95  A    between atoms: _247  and  _250
REMARK   96  A    between atoms: _250  and  _251
REMARK   97  A    between atoms: _251  and  _252
REMARK   98  A    between atoms: _255  and  _257
REMARK   99  A    between atoms: _257  and  _258
REMARK  100  A    between atoms: _257  and  _260
REMARK  101  A    between atoms: _260  and  _261
REMARK  102  A    between atoms: _263  and  _265
REMARK  103  A    between atoms: _265  and  _266
REMARK  104  A    between atoms: _265  and  _268
REMARK  105  A    between atoms: _268  and  _269
REMARK  106  A    between atoms: _274  and  _276
REMARK  107  A    between atoms: _276  and  _277
REMARK  108  A    between atoms: _280  and  _282
REMARK  109  A    between atoms: _282  and  _283
REMARK  110  A    between atoms: _282  and  _285
REMARK  111  A    between atoms: _288  and  _290
REMARK  112  A    between atoms: _290  and  _291
REMARK  113  A    between atoms: _290  and  _293
REMARK  114  A    between atoms: _293  and  _294
REMARK  115  A    between atoms: _297  and  _299
REMARK  116  A    between atoms: _299  and  _300
REMARK  117  A    between atoms: _299  and  _302
REMARK  118  A    between atoms: _302  and  _303
REMARK  119  A    between atoms: _303  and  _304
REMARK  120  A    between atoms: _309  and  _311
REMARK  121  A    between atoms: _311  and  _312
REMARK  122  A    between atoms: _315  and  _317
REMARK  123  A    between atoms: _317  and  _318
REMARK  124  A    between atoms: _317  and  _320
REMARK  125  A    between atoms: _320  and  _321
REMARK  126  A    between atoms: _323  and  _325
REMARK  127  A    between atoms: _325  and  _326
REMARK  128  A    between atoms: _328  and  _330
REMARK  129  A    between atoms: _330  and  _331
REMARK  130  A    between atoms: _330  and  _333
REMARK  131  A    between atoms: _333  and  _334
REMARK  132  A    between atoms: _334  and  _335
REMARK  133  A    between atoms: _340  and  _342
REMARK  134  A    between atoms: _342  and  _343
REMARK  135  A    between atoms: _346  and  _347
REMARK  136  A    between atoms: _352  and  _354
REMARK  137  A    between atoms: _354  and  _355
REMARK  138  A    between atoms: _354  and  _357
REMARK  139  A    between atoms: _357  and  _358
REMARK  140  A    between atoms: _363  and  _364
REMARK  141  A    between atoms: _366  and  _368
REMARK  142  A    between atoms: _368  and  _369
REMARK  143  A    between atoms: _368  and  _371
REMARK  144  A    between atoms: _371  and  _372
REMARK  145  A    between atoms: _377  and  _378
REMARK  146  A    between atoms: _380  and  _382
REMARK  147  A    between atoms: _382  and  _383
REMARK  148  A    between atoms: _385  and  _387
REMARK  149  A    between atoms: _387  and  _388
REMARK  150  A    between atoms: _387  and  _390
REMARK  151  A    between atoms: _390  and  _391
REMARK  152  A    between atoms: _391  and  _392
REMARK  153  A    between atoms: _397  and  _399
REMARK  154  A    between atoms: _399  and  _400
REMARK  155  A    between atoms: _403  and  _405
REMARK  156  A    between atoms: _405  and  _406
REMARK  157  A    between atoms: _409  and  _411
REMARK  158  A    between atoms: _411  and  _412
REMARK  159  A    between atoms: _411  and  _414
REMARK  160  A    between atoms: _414  and  _415
REMARK  161  A    between atoms: _425  and  _427
REMARK  162  A    between atoms: _427  and  _428
REMARK  163  A    between atoms: _427  and  _430
REMARK  164  A    between atoms: _430  and  _431
REMARK  165  A    between atoms: _437  and  _439
REMARK  166  A    between atoms: _439  and  _440
REMARK  167  A    between atoms: _439  and  _442
REMARK  168  A    between atoms: _442  and  _443
REMARK  169  A    between atoms: _448  and  _449
REMARK  170  A    between atoms: _451  and  _453
REMARK  171  A    between atoms: _453  and  _454
REMARK  172  A    between atoms: _453  and  _456
REMARK  173  A    between atoms: _456  and  _457
REMARK  174  A    between atoms: _460  and  _462
REMARK  175  A    between atoms: _462  and  _463
REMARK  176  A    between atoms: _462  and  _465
REMARK  177  A    between atoms: _465  and  _466
REMARK  178  A    between atoms: _476  and  _478
REMARK  179  A    between atoms: _478  and  _479
REMARK  180  A    between atoms: _478  and  _481
REMARK  181  A    between atoms: _481  and  _482
REMARK  182  A    between atoms: _485  and  _487
REMARK  183  A    between atoms: _487  and  _488
REMARK  184  A    between atoms: _487  and  _490
REMARK  185  A    between atoms: _490  and  _491
REMARK  186  A    between atoms: _496  and  _497
REMARK  187  A    between atoms: _499  and  _501
REMARK  188  A    between atoms: _501  and  _502
REMARK  189  A    between atoms: _501  and  _504
REMARK  190  A    between atoms: _504  and  _505
REMARK  191  A    between atoms: _511  and  _513
REMARK  192  A    between atoms: _513  and  _514
REMARK  193  A    between atoms: _517  and  _519
REMARK  194  A    between atoms: _519  and  _520
REMARK  195  A    between atoms: _519  and  _522
REMARK  196  A    between atoms: _522  and  _523
REMARK  197  A    between atoms: _525  and  _527
REMARK  198  A    between atoms: _527  and  _528
REMARK  199  A    between atoms: _530  and  _532
REMARK  200  A    between atoms: _532  and  _533
REMARK  201  A    between atoms: _532  and  _535
REMARK  202  A    between atoms: _535  and  _536
REMARK  203  A    between atoms: _536  and  _537
REMARK  204  A    between atoms: _543  and  _544
REMARK  205  A    between atoms: _549  and  _551
REMARK  206  A    between atoms: _551  and  _552
REMARK  207  A    between atoms: _551  and  _554
REMARK  208  A    between atoms: _554  and  _555
REMARK  209  A    between atoms: _560  and  _561
REMARK  210  A    between atoms: _563  and  _565
REMARK  211  A    between atoms: _565  and  _566
REMARK  212  A    between atoms: _565  and  _568
REMARK  213  A    between atoms: _568  and  _569
REMARK  214  A    between atoms: _569  and  _570
REMARK  215  A    between atoms: _570  and  _571
REMARK  216  A    between atoms: _580  and  _582
REMARK  217  A    between atoms: _582  and  _583
REMARK  218  A    between atoms: _582  and  _585
REMARK  219  A    between atoms: _585  and  _586
REMARK  220  A    between atoms: _591  and  _592
REMARK  221  A    between atoms: _594  and  _596
REMARK  222  A    between atoms: _596  and  _597
REMARK  223  A    between atoms: _596  and  _599
REMARK  224  A    between atoms: _599  and  _600
REMARK  225  A    between atoms: _600  and  _601
REMARK  226  A    between atoms: _604  and  _606
REMARK  227  A    between atoms: _606  and  _607
REMARK  228  A    between atoms: _606  and  _609
REMARK  229  A    between atoms: _609  and  _610
REMARK  230  A    between atoms: _610  and  _611
REMARK  231  A    between atoms: _611  and  _612
REMARK                            x       y       z     vdW  Elec       q    Type
REMARK                         _______ _______ _______ _____ _____    ______ ____
ROOT
ATOM      1  CA  GLU A   1      24.914  -4.085  20.956  0.00  0.00    +0.134 C 
ENDROOT
BRANCH   1   2
ATOM      2  N   GLU A   1      24.338  -5.314  21.486  0.00  0.00    -0.239 NA
ATOM      3  H   GLU A   1      23.306  -5.403  21.579  0.00  0.00    +0.142 HD
ENDBRANCH   1   2
BRANCH   1   4
ATOM      4  C   GLU A   1      25.654  -3.307  22.045  0.00  0.00    +0.224 C 
ATOM      5  O   GLU A   1      26.678  -2.678  21.778  0.00  0.00    -0.287 OA
ENDBRANCH   1   4
BRANCH   1   6
ATOM      6  CB  GLU A   1      23.846  -3.221  20.270  0.00  0.00    +0.037 C 
BRANCH   6   7
ATOM      7  CG  GLU A   1      24.403  -2.011  19.525  0.00  0.00    +0.116 C 
BRANCH   7   8
ATOM      8  CD  GLU A   1      25.258  -2.379  18.318  0.00  0.00    +0.365 C 
ATOM      9  OE2 GLU A   1      25.212  -3.543  17.861  0.00  0.00    -0.246 OA
ATOM     10  OE1 GLU A   1      25.984  -1.493  17.822  0.00  0.00    -0.246 OA
ENDBRANCH   7   8
ENDBRANCH   6   7
ENDBRANCH   1   6
TORSDOF 5
REMARK  Name = ../refined-set-2016/4zb6/4zb6_pocket.pdb
REMARK  231 active torsions:
REMARK  status: ('A' for Active; 'I' for Inactive)
REMARK    1  A    between atoms: _1  and  _3
REMARK    2  A    between atoms: _3  and  _4
REMARK    3  A    between atoms: _3  and  _6
REMARK    4  A    between atoms: _6  and  _7
REMARK    5  A    between atoms: _10  and  _12
REMARK    6  A    between atoms: _12  and  _13
REMARK    7  A    between atoms: _12  and  _15
REMARK    8  A    between atoms: _15  and  _16
REMARK    9  A    between atoms: _21  and  _23
REMARK   10  A    between atoms: _23  and  _24
REMARK   11  A    between atoms: _23  and  _26
REMARK   12  A    between atoms: _26  and  _27
REMARK   13  A    between atoms: _29  and  _31
REMARK   14  A    between atoms: _31  and  _32
REMARK   15  A    between atoms: _35  and  _36
REMARK   16  A    between atoms: _41  and  _43
REMARK   17  A    between atoms: _43  and  _44
REMARK   18  A    between atoms: _43  and  _46
REMARK   19  A    between atoms: _46  and  _47
REMARK   20  A    between atoms: _52  and  _54
REMARK   21  A    between atoms: _54  and  _55
REMARK   22  A    between atoms: _57  and  _59
REMARK   23  A    between atoms: _59  and  _60
REMARK   24  A    between atoms: _59  and  _62
REMARK   25  A    between atoms: _62  and  _63
REMARK   26  A    between atoms: _73  and  _75
REMARK   27  A    between atoms: _75  and  _76
REMARK   28  A    between atoms: _75  and  _78
REMARK   29  A    between atoms: _78  and  _79
REMARK   30  A    between atoms: _79  and  _80
REMARK   31  A    between atoms: _80  and  _81
REMARK   32  A    between atoms: _81  and  _82
REMARK   33  A    between atoms: _86  and  _88
REMARK   34  A    between atoms: _88  and  _89
REMARK   35  A    between atoms: _88  and  _91
REMARK   36  A    between atoms: _94  and  _96
REMARK   37  A    between atoms: _96  and  _97
REMARK   38  A    between atoms: _96  and  _99
REMARK   39  A    between atoms: _99  and  _100
REMARK   40  A    between atoms: _103  and  _105
REMARK   41  A    between atoms: _105  and  _106
REMARK   42  A    between atoms: _105  and  _108
REMARK   43  A    between atoms: _108  and  _109
REMARK   44  A    between atoms: _112  and  _114
REMARK   45  A    between atoms: _114  and  _115
REMARK   46  A    between atoms: _114  and  _117
REMARK   47  A    between atoms: _117  and  _118
REMARK   48  A    between atoms: _118  and  _119
REMARK   49  A    between atoms: _121  and  _123
REMARK   50  A    between atoms: _123  and  _124
REMARK   51  A    between atoms: _126  and  _128
REMARK   52  A    between atoms: _128  and  _129
REMARK   53  A    between atoms: _128  and  _131
REMARK   54  A    between atoms: _131  and  _132
REMARK   55  A    between atoms: _137  and  _139
REMARK   56  A    between atoms: _139  and  _140
REMARK   57  A    between atoms: _139  and  _142
REMARK   58  A    between atoms: _142  and  _143
REMARK   59  A    between atoms: _143  and  _144
REMARK   60  A    between atoms: _144  and  _145
REMARK   61  A    between atoms: _145  and  _146
REMARK   62  A    between atoms: _150  and  _152
REMARK   63  A    between atoms: _152  and  _153
REMARK   64  A    between atoms: _152  and  _155
REMARK   65  A    between atoms: _155  and  _156
REMARK   66  A    between atoms: _161  and  _162
REMARK   67  A    between atoms: _164  and  _166
REMARK   68  A    between atoms: _166  and  _167
REMARK   69  A    between atoms: _166  and  _169
REMARK   70  A    between atoms: _169  and  _170
REMARK   71  A    between atoms: _175  and  _177
REMARK   72  A    between atoms: _177  and  _178
REMARK   73  A    between atoms: _177  and  _180
REMARK   74  A    between atoms: _180  and  _181
REMARK   75  A    between atoms: _186  and  _188
REMARK   76  A    between atoms: _188  and  _189
REMARK   77  A    between atoms: _191  and  _193
REMARK   78  A    between atoms: _193  and  _194
REMARK   79  A    between atoms: _193  and  _196
REMARK   80  A    between atoms: _196  and  _197
REMARK   81  A    between atoms: _197  and  _198
REMARK   82  A    between atoms: _198  and  _199
REMARK   83  A    between atoms: _208  and  _210
REMARK   84  A    between atoms: _210  and  _211
REMARK   85  A    between atoms: _210  and  _213
REMARK   86  A    between atoms: _217  and  _218
REMARK   87  A    between atoms: _223  and  _225
REMARK   88  A    between atoms: _225  and  _226
REMARK   89  A    between atoms: _229  and  _231
REMARK   90  A    between atoms: _231  and  _232
REMARK   91  A    between atoms: _231  and  _234
REMARK   92  A    between atoms: _234  and  _235
REMARK   93  A    between atoms: _245  and  _247
REMARK   94  A    between atoms: _247  and  _248
REMARK   95  A    between atoms: _247  and  _250
REMARK   96  A    between atoms: _250  and  _251
REMARK   97  A    between atoms: _251  and  _252
REMARK   98  A    between atoms: _255  and  _257
REMARK   99  A    between atoms: _257  and  _258
REMARK  100  A    between atoms: _257  and  _260
REMARK  101  A    between atoms: _260  and  _261
REMARK  102  A    between atoms: _263  and  _265
REMARK  103  A    between atoms: _265  and  _266
REMARK  104  A    between atoms: _265  and  _268
REMARK  105  A    between atoms: _268  and  _269
REMARK  106  A    between atoms: _274  and  _276
REMARK  107  A    between atoms: _276  and  _277
REMARK  108  A    between atoms: _280  and  _282
REMARK  109  A    between atoms: _282  and  _283
REMARK  110  A    between atoms: _282  and  _285
REMARK  111  A    between atoms: _288  and  _290
REMARK  112  A    between atoms: _290  and  _291
REMARK  113  A    between atoms: _290  and  _293
REMARK  114  A    between atoms: _293  and  _294
REMARK  115  A    between atoms: _297  and  _299
REMARK  116  A    between atoms: _299  and  _300
REMARK  117  A    between atoms: _299  and  _302
REMARK  118  A    between atoms: _302  and  _303
REMARK  119  A    between atoms: _303  and  _304
REMARK  120  A    between atoms: _309  and  _311
REMARK  121  A    between atoms: _311  and  _312
REMARK  122  A    between atoms: _315  and  _317
REMARK  123  A    between atoms: _317  and  _318
REMARK  124  A    between atoms: _317  and  _320
REMARK  125  A    between atoms: _320  and  _321
REMARK  126  A    between atoms: _323  and  _325
REMARK  127  A    between atoms: _325  and  _326
REMARK  128  A    between atoms: _328  and  _330
REMARK  129  A    between atoms: _330  and  _331
REMARK  130  A    between atoms: _330  and  _333
REMARK  131  A    between atoms: _333  and  _334
REMARK  132  A    between atoms: _334  and  _335
REMARK  133  A    between atoms: _340  and  _342
REMARK  134  A    between atoms: _342  and  _343
REMARK  135  A    between atoms: _346  and  _347
REMARK  136  A    between atoms: _352  and  _354
REMARK  137  A    between atoms: _354  and  _355
REMARK  138  A    between atoms: _354  and  _357
REMARK  139  A    between atoms: _357  and  _358
REMARK  140  A    between atoms: _363  and  _364
REMARK  141  A    between atoms: _366  and  _368
REMARK  142  A    between atoms: _368  and  _369
REMARK  143  A    between atoms: _368  and  _371
REMARK  144  A    between atoms: _371  and  _372
REMARK  145  A    between atoms: _377  and  _378
REMARK  146  A    between atoms: _380  and  _382
REMARK  147  A    between atoms: _382  and  _383
REMARK  148  A    between atoms: _385  and  _387
REMARK  149  A    between atoms: _387  and  _388
REMARK  150  A    between atoms: _387  and  _390
REMARK  151  A    between atoms: _390  and  _391
REMARK  152  A    between atoms: _391  and  _392
REMARK  153  A    between atoms: _397  and  _399
REMARK  154  A    between atoms: _399  and  _400
REMARK  155  A    between atoms: _403  and  _405
REMARK  156  A    between atoms: _405  and  _406
REMARK  157  A    between atoms: _409  and  _411
REMARK  158  A    between atoms: _411  and  _412
REMARK  159  A    between atoms: _411  and  _414
REMARK  160  A    between atoms: _414  and  _415
REMARK  161  A    between atoms: _425  and  _427
REMARK  162  A    between atoms: _427  and  _428
REMARK  163  A    between atoms: _427  and  _430
REMARK  164  A    between atoms: _430  and  _431
REMARK  165  A    between atoms: _437  and  _439
REMARK  166  A    between atoms: _439  and  _440
REMARK  167  A    between atoms: _439  and  _442
REMARK  168  A    between atoms: _442  and  _443
REMARK  169  A    between atoms: _448  and  _449
REMARK  170  A    between atoms: _451  and  _453
REMARK  171  A    between atoms: _453  and  _454
REMARK  172  A    between atoms: _453  and  _456
REMARK  173  A    between atoms: _456  and  _457
REMARK  174  A    between atoms: _460  and  _462
REMARK  175  A    between atoms: _462  and  _463
REMARK  176  A    between atoms: _462  and  _465
REMARK  177  A    between atoms: _465  and  _466
REMARK  178  A    between atoms: _476  and  _478
REMARK  179  A    between atoms: _478  and  _479
REMARK  180  A    between atoms: _478  and  _481
REMARK  181  A    between atoms: _481  and  _482
REMARK  182  A    between atoms: _485  and  _487
REMARK  183  A    between atoms: _487  and  _488
REMARK  184  A    between atoms: _487  and  _490
REMARK  185  A    between atoms: _490  and  _491
REMARK  186  A    between atoms: _496  and  _497
REMARK  187  A    between atoms: _499  and  _501
REMARK  188  A    between atoms: _501  and  _502
REMARK  189  A    between atoms: _501  and  _504
REMARK  190  A    between atoms: _504  and  _505
REMARK  191  A    between atoms: _511  and  _513
REMARK  192  A    between atoms: _513  and  _514
REMARK  193  A    between atoms: _517  and  _519
REMARK  194  A    between atoms: _519  and  _520
REMARK  195  A    between atoms: _519  and  _522
REMARK  196  A    between atoms: _522  and  _523
REMARK  197  A    between atoms: _525  and  _527
REMARK  198  A    between atoms: _527  and  _528
REMARK  199  A    between atoms: _530  and  _532
REMARK  200  A    between atoms: _532  and  _533
REMARK  201  A    between atoms: _532  and  _535
REMARK  202  A    between atoms: _535  and  _536
REMARK  203  A    between atoms: _536  and  _537
REMARK  204  A    between atoms: _543  and  _544
REMARK  205  A    between atoms: _549  and  _551
REMARK  206  A    between atoms: _551  and  _552
REMARK  207  A    between atoms: _551  and  _554
REMARK  208  A    between atoms: _554  and  _555
REMARK  209  A    between atoms: _560  and  _561
REMARK  210  A    between atoms: _563  and  _565
REMARK  211  A    between atoms: _565  and  _566
REMARK  212  A    between atoms: _565  and  _568
REMARK  213  A    between atoms: _568  and  _569
REMARK  214  A    between atoms: _569  and  _570
REMARK  215  A    between atoms: _570  and  _571
REMARK  216  A    between atoms: _580  and  _582
REMARK  217  A    between atoms: _582  and  _583
REMARK  218  A    between atoms: _582  and  _585
REMARK  219  A    between atoms: _585  and  _586
REMARK  220  A    between atoms: _591  and  _592
REMARK  221  A    between atoms: _594  and  _596
REMARK  222  A    between atoms: _596  and  _597
REMARK  223  A    between atoms: _596  and  _599
REMARK  224  A    between atoms: _599  and  _600
REMARK  225  A    between atoms: _600  and  _601
REMARK  226  A    between atoms: _604  and  _606
REMARK  227  A    between atoms: _606  and  _607
REMARK  228  A    between atoms: _606  and  _609
REMARK  229  A    between atoms: _609  and  _610
REMARK  230  A    between atoms: _610  and  _611
REMARK  231  A    between atoms: _611  and  _612
REMARK                            x       y       z     vdW  Elec       q    Type
REMARK                         _______ _______ _______ _____ _____    ______ ____
ROOT
ATOM      1  NE  ARG A   1      28.527  -2.816  17.413  0.00  0.00    -0.265 N 
ATOM      2  HE  ARG A   1      27.582  -2.567  17.768  0.00  0.00    +0.259 HD
ATOM      3  CZ  ARG A   1      29.314  -1.830  16.987  0.00  0.00    +0.342 C 
ATOM      4  NH2 ARG A   1      28.885  -0.574  17.014  0.00  0.00    -0.292 N 
ATOM      5 HH21 ARG A   1      27.932  -0.358  17.369  0.00  0.00    +0.255 HD
ATOM      6 HH22 ARG A   1      29.502   0.194  16.681  0.00  0.00    +0.255 HD
ATOM      7  NH1 ARG A   1      30.532  -2.096  16.533  0.00  0.00    -0.292 N 
ATOM      8 HH11 ARG A   1      30.875  -3.077  16.509  0.00  0.00    +0.255 HD
ATOM      9 HH12 ARG A   1      31.144  -1.323  16.201  0.00  0.00    +0.255 HD
ENDROOT
BRANCH   1  10
ATOM     10  CD  ARG A   1      28.911  -4.227  17.412  0.00  0.00    +0.174 C 
BRANCH  10  11
ATOM     11  CG  ARG A   1      29.750  -4.566  18.628  0.00  0.00    +0.045 C 
BRANCH  11  12
ATOM     12  CB  ARG A   1      28.910  -4.584  19.893  0.00  0.00    +0.029 C 
BRANCH  12  13
ATOM     13  CA  ARG A   1      29.747  -4.561  21.170  0.00  0.00    +0.133 C 
BRANCH  13  14
ATOM     14  N   ARG A   1      28.939  -4.895  22.336  0.00  0.00    -0.239 NA
ATOM     15  H   ARG A   1      27.909  -4.999  22.235  0.00  0.00    +0.142 HD
ENDBRANCH  13  14
BRANCH  13  16
ATOM     16  C   ARG A   1      30.375  -3.185  21.333  0.00  0.00    +0.224 C 
ATOM     17  O   ARG A   1      31.565  -2.996  21.070  0.00  0.00    -0.287 OA
ENDBRANCH  13  16
ENDBRANCH  12  13
ENDBRANCH  11  12
ENDBRANCH  10  11
ENDBRANCH   1  10
TORSDOF 6
REMARK  Name = ../refined-set-2016/4zb6/4zb6_pocket.pdb
REMARK  231 active torsions:
REMARK  status: ('A' for Active; 'I' for Inactive)
REMARK    1  A    between atoms: _1  and  _3
REMARK    2  A    between atoms: _3  and  _4
REMARK    3  A    between atoms: _3  and  _6
REMARK    4  A    between atoms: _6  and  _7
REMARK    5  A    between atoms: _10  and  _12
REMARK    6  A    between atoms: _12  and  _13
REMARK    7  A    between atoms: _12  and  _15
REMARK    8  A    between atoms: _15  and  _16
REMARK    9  A    between atoms: _21  and  _23
REMARK   10  A    between atoms: _23  and  _24
REMARK   11  A    between atoms: _23  and  _26
REMARK   12  A    between atoms: _26  and  _27
REMARK   13  A    between atoms: _29  and  _31
REMARK   14  A    between atoms: _31  and  _32
REMARK   15  A    between atoms: _35  and  _36
REMARK   16  A    between atoms: _41  and  _43
REMARK   17  A    between atoms: _43  and  _44
REMARK   18  A    between atoms: _43  and  _46
REMARK   19  A    between atoms: _46  and  _47
REMARK   20  A    between atoms: _52  and  _54
REMARK   21  A    between atoms: _54  and  _55
REMARK   22  A    between atoms: _57  and  _59
REMARK   23  A    between atoms: _59  and  _60
REMARK   24  A    between atoms: _59  and  _62
REMARK   25  A    between atoms: _62  and  _63
REMARK   26  A    between atoms: _73  and  _75
REMARK   27  A    between atoms: _75  and  _76
REMARK   28  A    between atoms: _75  and  _78
REMARK   29  A    between atoms: _78  and  _79
REMARK   30  A    between atoms: _79  and  _80
REMARK   31  A    between atoms: _80  and  _81
REMARK   32  A    between atoms: _81  and  _82
REMARK   33  A    between atoms: _86  and  _88
REMARK   34  A    between atoms: _88  and  _89
REMARK   35  A    between atoms: _88  and  _91
REMARK   36  A    between atoms: _94  and  _96
REMARK   37  A    between atoms: _96  and  _97
REMARK   38  A    between atoms: _96  and  _99
REMARK   39  A    between atoms: _99  and  _100
REMARK   40  A    between atoms: _103  and  _105
REMARK   41  A    between atoms: _105  and  _106
REMARK   42  A    between atoms: _105  and  _108
REMARK   43  A    between atoms: _108  and  _109
REMARK   44  A    between atoms: _112  and  _114
REMARK   45  A    between atoms: _114  and  _115
REMARK   46  A    between atoms: _114  and  _117
REMARK   47  A    between atoms: _117  and  _118
REMARK   48  A    between atoms: _118  and  _119
REMARK   49  A    between atoms: _121  and  _123
REMARK   50  A    between atoms: _123  and  _124
REMARK   51  A    between atoms: _126  and  _128
REMARK   52  A    between atoms: _128  and  _129
REMARK   53  A    between atoms: _128  and  _131
REMARK   54  A    between atoms: _131  and  _132
REMARK   55  A    between atoms: _137  and  _139
REMARK   56  A    between atoms: _139  and  _140
REMARK   57  A    between atoms: _139  and  _142
REMARK   58  A    between atoms: _142  and  _143
REMARK   59  A    between atoms: _143  and  _144
REMARK   60  A    between atoms: _144  and  _145
REMARK   61  A    between atoms: _145  and  _146
REMARK   62  A    between atoms: _150  and  _152
REMARK   63  A    between atoms: _152  and  _153
REMARK   64  A    between atoms: _152  and  _155
REMARK   65  A    between atoms: _155  and  _156
REMARK   66  A    between atoms: _161  and  _162
REMARK   67  A    between atoms: _164  and  _166
REMARK   68  A    between atoms: _166  and  _167
REMARK   69  A    between atoms: _166  and  _169
REMARK   70  A    between atoms: _169  and  _170
REMARK   71  A    between atoms: _175  and  _177
REMARK   72  A    between atoms: _177  and  _178
REMARK   73  A    between atoms: _177  and  _180
REMARK   74  A    between atoms: _180  and  _181
REMARK   75  A    between atoms: _186  and  _188
REMARK   76  A    between atoms: _188  and  _189
REMARK   77  A    between atoms: _191  and  _193
REMARK   78  A    between atoms: _193  and  _194
REMARK   79  A    between atoms: _193  and  _196
REMARK   80  A    between atoms: _196  and  _197
REMARK   81  A    between atoms: _197  and  _198
REMARK   82  A    between atoms: _198  and  _199
REMARK   83  A    between atoms: _208  and  _210
REMARK   84  A    between atoms: _210  and  _211
REMARK   85  A    between atoms: _210  and  _213
REMARK   86  A    between atoms: _217  and  _218
REMARK   87  A    between atoms: _223  and  _225
REMARK   88  A    between atoms: _225  and  _226
REMARK   89  A    between atoms: _229  and  _231
REMARK   90  A    between atoms: _231  and  _232
REMARK   91  A    between atoms: _231  and  _234
REMARK   92  A    between atoms: _234  and  _235
REMARK   93  A    between atoms: _245  and  _247
REMARK   94  A    between atoms: _247  and  _248
REMARK   95  A    between atoms: _247  and  _250
REMARK   96  A    between atoms: _250  and  _251
REMARK   97  A    between atoms: _251  and  _252
REMARK   98  A    between atoms: _255  and  _257
REMARK   99  A    between atoms: _257  and  _258
REMARK  100  A    between atoms: _257  and  _260
REMARK  101  A    between atoms: _260  and  _261
REMARK  102  A    between atoms: _263  and  _265
REMARK  103  A    between atoms: _265  and  _266
REMARK  104  A    between atoms: _265  and  _268
REMARK  105  A    between atoms: _268  and  _269
REMARK  106  A    between atoms: _274  and  _276
REMARK  107  A    between atoms: _276  and  _277
REMARK  108  A    between atoms: _280  and  _282
REMARK  109  A    between atoms: _282  and  _283
REMARK  110  A    between atoms: _282  and  _285
REMARK  111  A    between atoms: _288  and  _290
REMARK  112  A    between atoms: _290  and  _291
REMARK  113  A    between atoms: _290  and  _293
REMARK  114  A    between atoms: _293  and  _294
REMARK  115  A    between atoms: _297  and  _299
REMARK  116  A    between atoms: _299  and  _300
REMARK  117  A    between atoms: _299  and  _302
REMARK  118  A    between atoms: _302  and  _303
REMARK  119  A    between atoms: _303  and  _304
REMARK  120  A    between atoms: _309  and  _311
REMARK  121  A    between atoms: _311  and  _312
REMARK  122  A    between atoms: _315  and  _317
REMARK  123  A    between atoms: _317  and  _318
REMARK  124  A    between atoms: _317  and  _320
REMARK  125  A    between atoms: _320  and  _321
REMARK  126  A    between atoms: _323  and  _325
REMARK  127  A    between atoms: _325  and  _326
REMARK  128  A    between atoms: _328  and  _330
REMARK  129  A    between atoms: _330  and  _331
REMARK  130  A    between atoms: _330  and  _333
REMARK  131  A    between atoms: _333  and  _334
REMARK  132  A    between atoms: _334  and  _335
REMARK  133  A    between atoms: _340  and  _342
REMARK  134  A    between atoms: _342  and  _343
REMARK  135  A    between atoms: _346  and  _347
REMARK  136  A    between atoms: _352  and  _354
REMARK  137  A    between atoms: _354  and  _355
REMARK  138  A    between atoms: _354  and  _357
REMARK  139  A    between atoms: _357  and  _358
REMARK  140  A    between atoms: _363  and  _364
REMARK  141  A    between atoms: _366  and  _368
REMARK  142  A    between atoms: _368  and  _369
REMARK  143  A    between atoms: _368  and  _371
REMARK  144  A    between atoms: _371  and  _372
REMARK  145  A    between atoms: _377  and  _378
REMARK  146  A    between atoms: _380  and  _382
REMARK  147  A    between atoms: _382  and  _383
REMARK  148  A    between atoms: _385  and  _387
REMARK  149  A    between atoms: _387  and  _388
REMARK  150  A    between atoms: _387  and  _390
REMARK  151  A    between atoms: _390  and  _391
REMARK  152  A    between atoms: _391  and  _392
REMARK  153  A    between atoms: _397  and  _399
REMARK  154  A    between atoms: _399  and  _400
REMARK  155  A    between atoms: _403  and  _405
REMARK  156  A    between atoms: _405  and  _406
REMARK  157  A    between atoms: _409  and  _411
REMARK  158  A    between atoms: _411  and  _412
REMARK  159  A    between atoms: _411  and  _414
REMARK  160  A    between atoms: _414  and  _415
REMARK  161  A    between atoms: _425  and  _427
REMARK  162  A    between atoms: _427  and  _428
REMARK  163  A    between atoms: _427  and  _430
REMARK  164  A    between atoms: _430  and  _431
REMARK  165  A    between atoms: _437  and  _439
REMARK  166  A    between atoms: _439  and  _440
REMARK  167  A    between atoms: _439  and  _442
REMARK  168  A    between atoms: _442  and  _443
REMARK  169  A    between atoms: _448  and  _449
REMARK  170  A    between atoms: _451  and  _453
REMARK  171  A    between atoms: _453  and  _454
REMARK  172  A    between atoms: _453  and  _456
REMARK  173  A    between atoms: _456  and  _457
REMARK  174  A    between atoms: _460  and  _462
REMARK  175  A    between atoms: _462  and  _463
REMARK  176  A    between atoms: _462  and  _465
REMARK  177  A    between atoms: _465  and  _466
REMARK  178  A    between atoms: _476  and  _478
REMARK  179  A    between atoms: _478  and  _479
REMARK  180  A    between atoms: _478  and  _481
REMARK  181  A    between atoms: _481  and  _482
REMARK  182  A    between atoms: _485  and  _487
REMARK  183  A    between atoms: _487  and  _488
REMARK  184  A    between atoms: _487  and  _490
REMARK  185  A    between atoms: _490  and  _491
REMARK  186  A    between atoms: _496  and  _497
REMARK  187  A    between atoms: _499  and  _501
REMARK  188  A    between atoms: _501  and  _502
REMARK  189  A    between atoms: _501  and  _504
REMARK  190  A    between atoms: _504  and  _505
REMARK  191  A    between atoms: _511  and  _513
REMARK  192  A    between atoms: _513  and  _514
REMARK  193  A    between atoms: _517  and  _519
REMARK  194  A    between atoms: _519  and  _520
REMARK  195  A    between atoms: _519  and  _522
REMARK  196  A    between atoms: _522  and  _523
REMARK  197  A    between atoms: _525  and  _527
REMARK  198  A    between atoms: _527  and  _528
REMARK  199  A    between atoms: _530  and  _532
REMARK  200  A    between atoms: _532  and  _533
REMARK  201  A    between atoms: _532  and  _535
REMARK  202  A    between atoms: _535  and  _536
REMARK  203  A    between atoms: _536  and  _537
REMARK  204  A    between atoms: _543  and  _544
REMARK  205  A    between atoms: _549  and  _551
REMARK  206  A    between atoms: _551  and  _552
REMARK  207  A    between atoms: _551  and  _554
REMARK  208  A    between atoms: _554  and  _555
REMARK  209  A    between atoms: _560  and  _561
REMARK  210  A    between atoms: _563  and  _565
REMARK  211  A    between atoms: _565  and  _566
REMARK  212  A    between atoms: _565  and  _568
REMARK  213  A    between atoms: _568  and  _569
REMARK  214  A    between atoms: _569  and  _570
REMARK  215  A    between atoms: _570  and  _571
REMARK  216  A    between atoms: _580  and  _582
REMARK  217  A    between atoms: _582  and  _583
REMARK  218  A    between atoms: _582  and  _585
REMARK  219  A    between atoms: _585  and  _586
REMARK  220  A    between atoms: _591  and  _592
REMARK  221  A    between atoms: _594  and  _596
REMARK  222  A    between atoms: _596  and  _597
REMARK  223  A    between atoms: _596  and  _599
REMARK  224  A    between atoms: _599  and  _600
REMARK  225  A    between atoms: _600  and  _601
REMARK  226  A    between atoms: _604  and  _606
REMARK  227  A    between atoms: _606  and  _607
REMARK  228  A    between atoms: _606  and  _609
REMARK  229  A    between atoms: _609  and  _610
REMARK  230  A    between atoms: _610  and  _611
REMARK  231  A    between atoms: _611  and  _612
REMARK                            x       y       z     vdW  Elec       q    Type
REMARK                         _______ _______ _______ _____ _____    ______ ____
ROOT
ATOM      1 NA   UNL     1      26.789   3.834   5.223  0.00  0.00    +0.000 Na
ENDROOT
TORSDOF 0
REMARK  Name = ../refined-set-2016/4zb6/4zb6_pocket.pdb
REMARK  231 active torsions:
REMARK  status: ('A' for Active; 'I' for Inactive)
REMARK    1  A    between atoms: _1  and  _3
REMARK    2  A    between atoms: _3  and  _4
REMARK    3  A    between atoms: _3  and  _6
REMARK    4  A    between atoms: _6  and  _7
REMARK    5  A    between atoms: _10  and  _12
REMARK    6  A    between atoms: _12  and  _13
REMARK    7  A    between atoms: _12  and  _15
REMARK    8  A    between atoms: _15  and  _16
REMARK    9  A    between atoms: _21  and  _23
REMARK   10  A    between atoms: _23  and  _24
REMARK   11  A    between atoms: _23  and  _26
REMARK   12  A    between atoms: _26  and  _27
REMARK   13  A    between atoms: _29  and  _31
REMARK   14  A    between atoms: _31  and  _32
REMARK   15  A    between atoms: _35  and  _36
REMARK   16  A    between atoms: _41  and  _43
REMARK   17  A    between atoms: _43  and  _44
REMARK   18  A    between atoms: _43  and  _46
REMARK   19  A    between atoms: _46  and  _47
REMARK   20  A    between atoms: _52  and  _54
REMARK   21  A    between atoms: _54  and  _55
REMARK   22  A    between atoms: _57  and  _59
REMARK   23  A    between atoms: _59  and  _60
REMARK   24  A    between atoms: _59  and  _62
REMARK   25  A    between atoms: _62  and  _63
REMARK   26  A    between atoms: _73  and  _75
REMARK   27  A    between atoms: _75  and  _76
REMARK   28  A    between atoms: _75  and  _78
REMARK   29  A    between atoms: _78  and  _79
REMARK   30  A    between atoms: _79  and  _80
REMARK   31  A    between atoms: _80  and  _81
REMARK   32  A    between atoms: _81  and  _82
REMARK   33  A    between atoms: _86  and  _88
REMARK   34  A    between atoms: _88  and  _89
REMARK   35  A    between atoms: _88  and  _91
REMARK   36  A    between atoms: _94  and  _96
REMARK   37  A    between atoms: _96  and  _97
REMARK   38  A    between atoms: _96  and  _99
REMARK   39  A    between atoms: _99  and  _100
REMARK   40  A    between atoms: _103  and  _105
REMARK   41  A    between atoms: _105  and  _106
REMARK   42  A    between atoms: _105  and  _108
REMARK   43  A    between atoms: _108  and  _109
REMARK   44  A    between atoms: _112  and  _114
REMARK   45  A    between atoms: _114  and  _115
REMARK   46  A    between atoms: _114  and  _117
REMARK   47  A    between atoms: _117  and  _118
REMARK   48  A    between atoms: _118  and  _119
REMARK   49  A    between atoms: _121  and  _123
REMARK   50  A    between atoms: _123  and  _124
REMARK   51  A    between atoms: _126  and  _128
REMARK   52  A    between atoms: _128  and  _129
REMARK   53  A    between atoms: _128  and  _131
REMARK   54  A    between atoms: _131  and  _132
REMARK   55  A    between atoms: _137  and  _139
REMARK   56  A    between atoms: _139  and  _140
REMARK   57  A    between atoms: _139  and  _142
REMARK   58  A    between atoms: _142  and  _143
REMARK   59  A    between atoms: _143  and  _144
REMARK   60  A    between atoms: _144  and  _145
REMARK   61  A    between atoms: _145  and  _146
REMARK   62  A    between atoms: _150  and  _152
REMARK   63  A    between atoms: _152  and  _153
REMARK   64  A    between atoms: _152  and  _155
REMARK   65  A    between atoms: _155  and  _156
REMARK   66  A    between atoms: _161  and  _162
REMARK   67  A    between atoms: _164  and  _166
REMARK   68  A    between atoms: _166  and  _167
REMARK   69  A    between atoms: _166  and  _169
REMARK   70  A    between atoms: _169  and  _170
REMARK   71  A    between atoms: _175  and  _177
REMARK   72  A    between atoms: _177  and  _178
REMARK   73  A    between atoms: _177  and  _180
REMARK   74  A    between atoms: _180  and  _181
REMARK   75  A    between atoms: _186  and  _188
REMARK   76  A    between atoms: _188  and  _189
REMARK   77  A    between atoms: _191  and  _193
REMARK   78  A    between atoms: _193  and  _194
REMARK   79  A    between atoms: _193  and  _196
REMARK   80  A    between atoms: _196  and  _197
REMARK   81  A    between atoms: _197  and  _198
REMARK   82  A    between atoms: _198  and  _199
REMARK   83  A    between atoms: _208  and  _210
REMARK   84  A    between atoms: _210  and  _211
REMARK   85  A    between atoms: _210  and  _213
REMARK   86  A    between atoms: _217  and  _218
REMARK   87  A    between atoms: _223  and  _225
REMARK   88  A    between atoms: _225  and  _226
REMARK   89  A    between atoms: _229  and  _231
REMARK   90  A    between atoms: _231  and  _232
REMARK   91  A    between atoms: _231  and  _234
REMARK   92  A    between atoms: _234  and  _235
REMARK   93  A    between atoms: _245  and  _247
REMARK   94  A    between atoms: _247  and  _248
REMARK   95  A    between atoms: _247  and  _250
REMARK   96  A    between atoms: _250  and  _251
REMARK   97  A    between atoms: _251  and  _252
REMARK   98  A    between atoms: _255  and  _257
REMARK   99  A    between atoms: _257  and  _258
REMARK  100  A    between atoms: _257  and  _260
REMARK  101  A    between atoms: _260  and  _261
REMARK  102  A    between atoms: _263  and  _265
REMARK  103  A    between atoms: _265  and  _266
REMARK  104  A    between atoms: _265  and  _268
REMARK  105  A    between atoms: _268  and  _269
REMARK  106  A    between atoms: _274  and  _276
REMARK  107  A    between atoms: _276  and  _277
REMARK  108  A    between atoms: _280  and  _282
REMARK  109  A    between atoms: _282  and  _283
REMARK  110  A    between atoms: _282  and  _285
REMARK  111  A    between atoms: _288  and  _290
REMARK  112  A    between atoms: _290  and  _291
REMARK  113  A    between atoms: _290  and  _293
REMARK  114  A    between atoms: _293  and  _294
REMARK  115  A    between atoms: _297  and  _299
REMARK  116  A    between atoms: _299  and  _300
REMARK  117  A    between atoms: _299  and  _302
REMARK  118  A    between atoms: _302  and  _303
REMARK  119  A    between atoms: _303  and  _304
REMARK  120  A    between atoms: _309  and  _311
REMARK  121  A    between atoms: _311  and  _312
REMARK  122  A    between atoms: _315  and  _317
REMARK  123  A    between atoms: _317  and  _318
REMARK  124  A    between atoms: _317  and  _320
REMARK  125  A    between atoms: _320  and  _321
REMARK  126  A    between atoms: _323  and  _325
REMARK  127  A    between atoms: _325  and  _326
REMARK  128  A    between atoms: _328  and  _330
REMARK  129  A    between atoms: _330  and  _331
REMARK  130  A    between atoms: _330  and  _333
REMARK  131  A    between atoms: _333  and  _334
REMARK  132  A    between atoms: _334  and  _335
REMARK  133  A    between atoms: _340  and  _342
REMARK  134  A    between atoms: _342  and  _343
REMARK  135  A    between atoms: _346  and  _347
REMARK  136  A    between atoms: _352  and  _354
REMARK  137  A    between atoms: _354  and  _355
REMARK  138  A    between atoms: _354  and  _357
REMARK  139  A    between atoms: _357  and  _358
REMARK  140  A    between atoms: _363  and  _364
REMARK  141  A    between atoms: _366  and  _368
REMARK  142  A    between atoms: _368  and  _369
REMARK  143  A    between atoms: _368  and  _371
REMARK  144  A    between atoms: _371  and  _372
REMARK  145  A    between atoms: _377  and  _378
REMARK  146  A    between atoms: _380  and  _382
REMARK  147  A    between atoms: _382  and  _383
REMARK  148  A    between atoms: _385  and  _387
REMARK  149  A    between atoms: _387  and  _388
REMARK  150  A    between atoms: _387  and  _390
REMARK  151  A    between atoms: _390  and  _391
REMARK  152  A    between atoms: _391  and  _392
REMARK  153  A    between atoms: _397  and  _399
REMARK  154  A    between atoms: _399  and  _400
REMARK  155  A    between atoms: _403  and  _405
REMARK  156  A    between atoms: _405  and  _406
REMARK  157  A    between atoms: _409  and  _411
REMARK  158  A    between atoms: _411  and  _412
REMARK  159  A    between atoms: _411  and  _414
REMARK  160  A    between atoms: _414  and  _415
REMARK  161  A    between atoms: _425  and  _427
REMARK  162  A    between atoms: _427  and  _428
REMARK  163  A    between atoms: _427  and  _430
REMARK  164  A    between atoms: _430  and  _431
REMARK  165  A    between atoms: _437  and  _439
REMARK  166  A    between atoms: _439  and  _440
REMARK  167  A    between atoms: _439  and  _442
REMARK  168  A    between atoms: _442  and  _443
REMARK  169  A    between atoms: _448  and  _449
REMARK  170  A    between atoms: _451  and  _453
REMARK  171  A    between atoms: _453  and  _454
REMARK  172  A    between atoms: _453  and  _456
REMARK  173  A    between atoms: _456  and  _457
REMARK  174  A    between atoms: _460  and  _462
REMARK  175  A    between atoms: _462  and  _463
REMARK  176  A    between atoms: _462  and  _465
REMARK  177  A    between atoms: _465  and  _466
REMARK  178  A    between atoms: _476  and  _478
REMARK  179  A    between atoms: _478  and  _479
REMARK  180  A    between atoms: _478  and  _481
REMARK  181  A    between atoms: _481  and  _482
REMARK  182  A    between atoms: _485  and  _487
REMARK  183  A    between atoms: _487  and  _488
REMARK  184  A    between atoms: _487  and  _490
REMARK  185  A    between atoms: _490  and  _491
REMARK  186  A    between atoms: _496  and  _497
REMARK  187  A    between atoms: _499  and  _501
REMARK  188  A    between atoms: _501  and  _502
REMARK  189  A    between atoms: _501  and  _504
REMARK  190  A    between atoms: _504  and  _505
REMARK  191  A    between atoms: _511  and  _513
REMARK  192  A    between atoms: _513  and  _514
REMARK  193  A    between atoms: _517  and  _519
REMARK  194  A    between atoms: _519  and  _520
REMARK  195  A    between atoms: _519  and  _522
REMARK  196  A    between atoms: _522  and  _523
REMARK  197  A    between atoms: _525  and  _527
REMARK  198  A    between atoms: _527  and  _528
REMARK  199  A    between atoms: _530  and  _532
REMARK  200  A    between atoms: _532  and  _533
REMARK  201  A    between atoms: _532  and  _535
REMARK  202  A    between atoms: _535  and  _536
REMARK  203  A    between atoms: _536  and  _537
REMARK  204  A    between atoms: _543  and  _544
REMARK  205  A    between atoms: _549  and  _551
REMARK  206  A    between atoms: _551  and  _552
REMARK  207  A    between atoms: _551  and  _554
REMARK  208  A    between atoms: _554  and  _555
REMARK  209  A    between atoms: _560  and  _561
REMARK  210  A    between atoms: _563  and  _565
REMARK  211  A    between atoms: _565  and  _566
REMARK  212  A    between atoms: _565  and  _568
REMARK  213  A    between atoms: _568  and  _569
REMARK  214  A    between atoms: _569  and  _570
REMARK  215  A    between atoms: _570  and  _571
REMARK  216  A    between atoms: _580  and  _582
REMARK  217  A    between atoms: _582  and  _583
REMARK  218  A    between atoms: _582  and  _585
REMARK  219  A    between atoms: _585  and  _586
REMARK  220  A    between atoms: _591  and  _592
REMARK  221  A    between atoms: _594  and  _596
REMARK  222  A    between atoms: _596  and  _597
REMARK  223  A    between atoms: _596  and  _599
REMARK  224  A    between atoms: _599  and  _600
REMARK  225  A    between atoms: _600  and  _601
REMARK  226  A    between atoms: _604  and  _606
REMARK  227  A    between atoms: _606  and  _607
REMARK  228  A    between atoms: _606  and  _609
REMARK  229  A    between atoms: _609  and  _610
REMARK  230  A    between atoms: _610  and  _611
REMARK  231  A    between atoms: _611  and  _612
REMARK                            x       y       z     vdW  Elec       q    Type
REMARK                         _______ _______ _______ _____ _____    ______ ____
ROOT
ATOM      1  O   HOH     1      29.360   3.717   3.286  0.00  0.00    +0.000 OA
ENDROOT
TORSDOF 0
REMARK  Name = ../refined-set-2016/4zb6/4zb6_pocket.pdb
REMARK  231 active torsions:
REMARK  status: ('A' for Active; 'I' for Inactive)
REMARK    1  A    between atoms: _1  and  _3
REMARK    2  A    between atoms: _3  and  _4
REMARK    3  A    between atoms: _3  and  _6
REMARK    4  A    between atoms: _6  and  _7
REMARK    5  A    between atoms: _10  and  _12
REMARK    6  A    between atoms: _12  and  _13
REMARK    7  A    between atoms: _12  and  _15
REMARK    8  A    between atoms: _15  and  _16
REMARK    9  A    between atoms: _21  and  _23
REMARK   10  A    between atoms: _23  and  _24
REMARK   11  A    between atoms: _23  and  _26
REMARK   12  A    between atoms: _26  and  _27
REMARK   13  A    between atoms: _29  and  _31
REMARK   14  A    between atoms: _31  and  _32
REMARK   15  A    between atoms: _35  and  _36
REMARK   16  A    between atoms: _41  and  _43
REMARK   17  A    between atoms: _43  and  _44
REMARK   18  A    between atoms: _43  and  _46
REMARK   19  A    between atoms: _46  and  _47
REMARK   20  A    between atoms: _52  and  _54
REMARK   21  A    between atoms: _54  and  _55
REMARK   22  A    between atoms: _57  and  _59
REMARK   23  A    between atoms: _59  and  _60
REMARK   24  A    between atoms: _59  and  _62
REMARK   25  A    between atoms: _62  and  _63
REMARK   26  A    between atoms: _73  and  _75
REMARK   27  A    between atoms: _75  and  _76
REMARK   28  A    between atoms: _75  and  _78
REMARK   29  A    between atoms: _78  and  _79
REMARK   30  A    between atoms: _79  and  _80
REMARK   31  A    between atoms: _80  and  _81
REMARK   32  A    between atoms: _81  and  _82
REMARK   33  A    between atoms: _86  and  _88
REMARK   34  A    between atoms: _88  and  _89
REMARK   35  A    between atoms: _88  and  _91
REMARK   36  A    between atoms: _94  and  _96
REMARK   37  A    between atoms: _96  and  _97
REMARK   38  A    between atoms: _96  and  _99
REMARK   39  A    between atoms: _99  and  _100
REMARK   40  A    between atoms: _103  and  _105
REMARK   41  A    between atoms: _105  and  _106
REMARK   42  A    between atoms: _105  and  _108
REMARK   43  A    between atoms: _108  and  _109
REMARK   44  A    between atoms: _112  and  _114
REMARK   45  A    between atoms: _114  and  _115
REMARK   46  A    between atoms: _114  and  _117
REMARK   47  A    between atoms: _117  and  _118
REMARK   48  A    between atoms: _118  and  _119
REMARK   49  A    between atoms: _121  and  _123
REMARK   50  A    between atoms: _123  and  _124
REMARK   51  A    between atoms: _126  and  _128
REMARK   52  A    between atoms: _128  and  _129
REMARK   53  A    between atoms: _128  and  _131
REMARK   54  A    between atoms: _131  and  _132
REMARK   55  A    between atoms: _137  and  _139
REMARK   56  A    between atoms: _139  and  _140
REMARK   57  A    between atoms: _139  and  _142
REMARK   58  A    between atoms: _142  and  _143
REMARK   59  A    between atoms: _143  and  _144
REMARK   60  A    between atoms: _144  and  _145
REMARK   61  A    between atoms: _145  and  _146
REMARK   62  A    between atoms: _150  and  _152
REMARK   63  A    between atoms: _152  and  _153
REMARK   64  A    between atoms: _152  and  _155
REMARK   65  A    between atoms: _155  and  _156
REMARK   66  A    between atoms: _161  and  _162
REMARK   67  A    between atoms: _164  and  _166
REMARK   68  A    between atoms: _166  and  _167
REMARK   69  A    between atoms: _166  and  _169
REMARK   70  A    between atoms: _169  and  _170
REMARK   71  A    between atoms: _175  and  _177
REMARK   72  A    between atoms: _177  and  _178
REMARK   73  A    between atoms: _177  and  _180
REMARK   74  A    between atoms: _180  and  _181
REMARK   75  A    between atoms: _186  and  _188
REMARK   76  A    between atoms: _188  and  _189
REMARK   77  A    between atoms: _191  and  _193
REMARK   78  A    between atoms: _193  and  _194
REMARK   79  A    between atoms: _193  and  _196
REMARK   80  A    between atoms: _196  and  _197
REMARK   81  A    between atoms: _197  and  _198
REMARK   82  A    between atoms: _198  and  _199
REMARK   83  A    between atoms: _208  and  _210
REMARK   84  A    between atoms: _210  and  _211
REMARK   85  A    between atoms: _210  and  _213
REMARK   86  A    between atoms: _217  and  _218
REMARK   87  A    between atoms: _223  and  _225
REMARK   88  A    between atoms: _225  and  _226
REMARK   89  A    between atoms: _229  and  _231
REMARK   90  A    between atoms: _231  and  _232
REMARK   91  A    between atoms: _231  and  _234
REMARK   92  A    between atoms: _234  and  _235
REMARK   93  A    between atoms: _245  and  _247
REMARK   94  A    between atoms: _247  and  _248
REMARK   95  A    between atoms: _247  and  _250
REMARK   96  A    between atoms: _250  and  _251
REMARK   97  A    between atoms: _251  and  _252
REMARK   98  A    between atoms: _255  and  _257
REMARK   99  A    between atoms: _257  and  _258
REMARK  100  A    between atoms: _257  and  _260
REMARK  101  A    between atoms: _260  and  _261
REMARK  102  A    between atoms: _263  and  _265
REMARK  103  A    between atoms: _265  and  _266
REMARK  104  A    between atoms: _265  and  _268
REMARK  105  A    between atoms: _268  and  _269
REMARK  106  A    between atoms: _274  and  _276
REMARK  107  A    between atoms: _276  and  _277
REMARK  108  A    between atoms: _280  and  _282
REMARK  109  A    between atoms: _282  and  _283
REMARK  110  A    between atoms: _282  and  _285
REMARK  111  A    between atoms: _288  and  _290
REMARK  112  A    between atoms: _290  and  _291
REMARK  113  A    between atoms: _290  and  _293
REMARK  114  A    between atoms: _293  and  _294
REMARK  115  A    between atoms: _297  and  _299
REMARK  116  A    between atoms: _299  and  _300
REMARK  117  A    between atoms: _299  and  _302
REMARK  118  A    between atoms: _302  and  _303
REMARK  119  A    between atoms: _303  and  _304
REMARK  120  A    between atoms: _309  and  _311
REMARK  121  A    between atoms: _311  and  _312
REMARK  122  A    between atoms: _315  and  _317
REMARK  123  A    between atoms: _317  and  _318
REMARK  124  A    between atoms: _317  and  _320
REMARK  125  A    between atoms: _320  and  _321
REMARK  126  A    between atoms: _323  and  _325
REMARK  127  A    between atoms: _325  and  _326
REMARK  128  A    between atoms: _328  and  _330
REMARK  129  A    between atoms: _330  and  _331
REMARK  130  A    between atoms: _330  and  _333
REMARK  131  A    between atoms: _333  and  _334
REMARK  132  A    between atoms: _334  and  _335
REMARK  133  A    between atoms: _340  and  _342
REMARK  134  A    between atoms: _342  and  _343
REMARK  135  A    between atoms: _346  and  _347
REMARK  136  A    between atoms: _352  and  _354
REMARK  137  A    between atoms: _354  and  _355
REMARK  138  A    between atoms: _354  and  _357
REMARK  139  A    between atoms: _357  and  _358
REMARK  140  A    between atoms: _363  and  _364
REMARK  141  A    between atoms: _366  and  _368
REMARK  142  A    between atoms: _368  and  _369
REMARK  143  A    between atoms: _368  and  _371
REMARK  144  A    between atoms: _371  and  _372
REMARK  145  A    between atoms: _377  and  _378
REMARK  146  A    between atoms: _380  and  _382
REMARK  147  A    between atoms: _382  and  _383
REMARK  148  A    between atoms: _385  and  _387
REMARK  149  A    between atoms: _387  and  _388
REMARK  150  A    between atoms: _387  and  _390
REMARK  151  A    between atoms: _390  and  _391
REMARK  152  A    between atoms: _391  and  _392
REMARK  153  A    between atoms: _397  and  _399
REMARK  154  A    between atoms: _399  and  _400
REMARK  155  A    between atoms: _403  and  _405
REMARK  156  A    between atoms: _405  and  _406
REMARK  157  A    between atoms: _409  and  _411
REMARK  158  A    between atoms: _411  and  _412
REMARK  159  A    between atoms: _411  and  _414
REMARK  160  A    between atoms: _414  and  _415
REMARK  161  A    between atoms: _425  and  _427
REMARK  162  A    between atoms: _427  and  _428
REMARK  163  A    between atoms: _427  and  _430
REMARK  164  A    between atoms: _430  and  _431
REMARK  165  A    between atoms: _437  and  _439
REMARK  166  A    between atoms: _439  and  _440
REMARK  167  A    between atoms: _439  and  _442
REMARK  168  A    between atoms: _442  and  _443
REMARK  169  A    between atoms: _448  and  _449
REMARK  170  A    between atoms: _451  and  _453
REMARK  171  A    between atoms: _453  and  _454
REMARK  172  A    between atoms: _453  and  _456
REMARK  173  A    between atoms: _456  and  _457
REMARK  174  A    between atoms: _460  and  _462
REMARK  175  A    between atoms: _462  and  _463
REMARK  176  A    between atoms: _462  and  _465
REMARK  177  A    between atoms: _465  and  _466
REMARK  178  A    between atoms: _476  and  _478
REMARK  179  A    between atoms: _478  and  _479
REMARK  180  A    between atoms: _478  and  _481
REMARK  181  A    between atoms: _481  and  _482
REMARK  182  A    between atoms: _485  and  _487
REMARK  183  A    between atoms: _487  and  _488
REMARK  184  A    between atoms: _487  and  _490
REMARK  185  A    between atoms: _490  and  _491
REMARK  186  A    between atoms: _496  and  _497
REMARK  187  A    between atoms: _499  and  _501
REMARK  188  A    between atoms: _501  and  _502
REMARK  189  A    between atoms: _501  and  _504
REMARK  190  A    between atoms: _504  and  _505
REMARK  191  A    between atoms: _511  and  _513
REMARK  192  A    between atoms: _513  and  _514
REMARK  193  A    between atoms: _517  and  _519
REMARK  194  A    between atoms: _519  and  _520
REMARK  195  A    between atoms: _519  and  _522
REMARK  196  A    between atoms: _522  and  _523
REMARK  197  A    between atoms: _525  and  _527
REMARK  198  A    between atoms: _527  and  _528
REMARK  199  A    between atoms: _530  and  _532
REMARK  200  A    between atoms: _532  and  _533
REMARK  201  A    between atoms: _532  and  _535
REMARK  202  A    between atoms: _535  and  _536
REMARK  203  A    between atoms: _536  and  _537
REMARK  204  A    between atoms: _543  and  _544
REMARK  205  A    between atoms: _549  and  _551
REMARK  206  A    between atoms: _551  and  _552
REMARK  207  A    between atoms: _551  and  _554
REMARK  208  A    between atoms: _554  and  _555
REMARK  209  A    between atoms: _560  and  _561
REMARK  210  A    between atoms: _563  and  _565
REMARK  211  A    between atoms: _565  and  _566
REMARK  212  A    between atoms: _565  and  _568
REMARK  213  A    between atoms: _568  and  _569
REMARK  214  A    between atoms: _569  and  _570
REMARK  215  A    between atoms: _570  and  _571
REMARK  216  A    between atoms: _580  and  _582
REMARK  217  A    between atoms: _582  and  _583
REMARK  218  A    between atoms: _582  and  _585
REMARK  219  A    between atoms: _585  and  _586
REMARK  220  A    between atoms: _591  and  _592
REMARK  221  A    between atoms: _594  and  _596
REMARK  222  A    between atoms: _596  and  _597
REMARK  223  A    between atoms: _596  and  _599
REMARK  224  A    between atoms: _599  and  _600
REMARK  225  A    between atoms: _600  and  _601
REMARK  226  A    between atoms: _604  and  _606
REMARK  227  A    between atoms: _606  and  _607
REMARK  228  A    between atoms: _606  and  _609
REMARK  229  A    between atoms: _609  and  _610
REMARK  230  A    between atoms: _610  and  _611
REMARK  231  A    between atoms: _611  and  _612
REMARK                            x       y       z     vdW  Elec       q    Type
REMARK                         _______ _______ _______ _____ _____    ______ ____
ROOT
ATOM      1  O   HOH     1      22.932   8.593   9.891  0.00  0.00    +0.000 OA
ENDROOT
TORSDOF 0
REMARK  Name = ../refined-set-2016/4zb6/4zb6_pocket.pdb
REMARK  231 active torsions:
REMARK  status: ('A' for Active; 'I' for Inactive)
REMARK    1  A    between atoms: _1  and  _3
REMARK    2  A    between atoms: _3  and  _4
REMARK    3  A    between atoms: _3  and  _6
REMARK    4  A    between atoms: _6  and  _7
REMARK    5  A    between atoms: _10  and  _12
REMARK    6  A    between atoms: _12  and  _13
REMARK    7  A    between atoms: _12  and  _15
REMARK    8  A    between atoms: _15  and  _16
REMARK    9  A    between atoms: _21  and  _23
REMARK   10  A    between atoms: _23  and  _24
REMARK   11  A    between atoms: _23  and  _26
REMARK   12  A    between atoms: _26  and  _27
REMARK   13  A    between atoms: _29  and  _31
REMARK   14  A    between atoms: _31  and  _32
REMARK   15  A    between atoms: _35  and  _36
REMARK   16  A    between atoms: _41  and  _43
REMARK   17  A    between atoms: _43  and  _44
REMARK   18  A    between atoms: _43  and  _46
REMARK   19  A    between atoms: _46  and  _47
REMARK   20  A    between atoms: _52  and  _54
REMARK   21  A    between atoms: _54  and  _55
REMARK   22  A    between atoms: _57  and  _59
REMARK   23  A    between atoms: _59  and  _60
REMARK   24  A    between atoms: _59  and  _62
REMARK   25  A    between atoms: _62  and  _63
REMARK   26  A    between atoms: _73  and  _75
REMARK   27  A    between atoms: _75  and  _76
REMARK   28  A    between atoms: _75  and  _78
REMARK   29  A    between atoms: _78  and  _79
REMARK   30  A    between atoms: _79  and  _80
REMARK   31  A    between atoms: _80  and  _81
REMARK   32  A    between atoms: _81  and  _82
REMARK   33  A    between atoms: _86  and  _88
REMARK   34  A    between atoms: _88  and  _89
REMARK   35  A    between atoms: _88  and  _91
REMARK   36  A    between atoms: _94  and  _96
REMARK   37  A    between atoms: _96  and  _97
REMARK   38  A    between atoms: _96  and  _99
REMARK   39  A    between atoms: _99  and  _100
REMARK   40  A    between atoms: _103  and  _105
REMARK   41  A    between atoms: _105  and  _106
REMARK   42  A    between atoms: _105  and  _108
REMARK   43  A    between atoms: _108  and  _109
REMARK   44  A    between atoms: _112  and  _114
REMARK   45  A    between atoms: _114  and  _115
REMARK   46  A    between atoms: _114  and  _117
REMARK   47  A    between atoms: _117  and  _118
REMARK   48  A    between atoms: _118  and  _119
REMARK   49  A    between atoms: _121  and  _123
REMARK   50  A    between atoms: _123  and  _124
REMARK   51  A    between atoms: _126  and  _128
REMARK   52  A    between atoms: _128  and  _129
REMARK   53  A    between atoms: _128  and  _131
REMARK   54  A    between atoms: _131  and  _132
REMARK   55  A    between atoms: _137  and  _139
REMARK   56  A    between atoms: _139  and  _140
REMARK   57  A    between atoms: _139  and  _142
REMARK   58  A    between atoms: _142  and  _143
REMARK   59  A    between atoms: _143  and  _144
REMARK   60  A    between atoms: _144  and  _145
REMARK   61  A    between atoms: _145  and  _146
REMARK   62  A    between atoms: _150  and  _152
REMARK   63  A    between atoms: _152  and  _153
REMARK   64  A    between atoms: _152  and  _155
REMARK   65  A    between atoms: _155  and  _156
REMARK   66  A    between atoms: _161  and  _162
REMARK   67  A    between atoms: _164  and  _166
REMARK   68  A    between atoms: _166  and  _167
REMARK   69  A    between atoms: _166  and  _169
REMARK   70  A    between atoms: _169  and  _170
REMARK   71  A    between atoms: _175  and  _177
REMARK   72  A    between atoms: _177  and  _178
REMARK   73  A    between atoms: _177  and  _180
REMARK   74  A    between atoms: _180  and  _181
REMARK   75  A    between atoms: _186  and  _188
REMARK   76  A    between atoms: _188  and  _189
REMARK   77  A    between atoms: _191  and  _193
REMARK   78  A    between atoms: _193  and  _194
REMARK   79  A    between atoms: _193  and  _196
REMARK   80  A    between atoms: _196  and  _197
REMARK   81  A    between atoms: _197  and  _198
REMARK   82  A    between atoms: _198  and  _199
REMARK   83  A    between atoms: _208  and  _210
REMARK   84  A    between atoms: _210  and  _211
REMARK   85  A    between atoms: _210  and  _213
REMARK   86  A    between atoms: _217  and  _218
REMARK   87  A    between atoms: _223  and  _225
REMARK   88  A    between atoms: _225  and  _226
REMARK   89  A    between atoms: _229  and  _231
REMARK   90  A    between atoms: _231  and  _232
REMARK   91  A    between atoms: _231  and  _234
REMARK   92  A    between atoms: _234  and  _235
REMARK   93  A    between atoms: _245  and  _247
REMARK   94  A    between atoms: _247  and  _248
REMARK   95  A    between atoms: _247  and  _250
REMARK   96  A    between atoms: _250  and  _251
REMARK   97  A    between atoms: _251  and  _252
REMARK   98  A    between atoms: _255  and  _257
REMARK   99  A    between atoms: _257  and  _258
REMARK  100  A    between atoms: _257  and  _260
REMARK  101  A    between atoms: _260  and  _261
REMARK  102  A    between atoms: _263  and  _265
REMARK  103  A    between atoms: _265  and  _266
REMARK  104  A    between atoms: _265  and  _268
REMARK  105  A    between atoms: _268  and  _269
REMARK  106  A    between atoms: _274  and  _276
REMARK  107  A    between atoms: _276  and  _277
REMARK  108  A    between atoms: _280  and  _282
REMARK  109  A    between atoms: _282  and  _283
REMARK  110  A    between atoms: _282  and  _285
REMARK  111  A    between atoms: _288  and  _290
REMARK  112  A    between atoms: _290  and  _291
REMARK  113  A    between atoms: _290  and  _293
REMARK  114  A    between atoms: _293  and  _294
REMARK  115  A    between atoms: _297  and  _299
REMARK  116  A    between atoms: _299  and  _300
REMARK  117  A    between atoms: _299  and  _302
REMARK  118  A    between atoms: _302  and  _303
REMARK  119  A    between atoms: _303  and  _304
REMARK  120  A    between atoms: _309  and  _311
REMARK  121  A    between atoms: _311  and  _312
REMARK  122  A    between atoms: _315  and  _317
REMARK  123  A    between atoms: _317  and  _318
REMARK  124  A    between atoms: _317  and  _320
REMARK  125  A    between atoms: _320  and  _321
REMARK  126  A    between atoms: _323  and  _325
REMARK  127  A    between atoms: _325  and  _326
REMARK  128  A    between atoms: _328  and  _330
REMARK  129  A    between atoms: _330  and  _331
REMARK  130  A    between atoms: _330  and  _333
REMARK  131  A    between atoms: _333  and  _334
REMARK  132  A    between atoms: _334  and  _335
REMARK  133  A    between atoms: _340  and  _342
REMARK  134  A    between atoms: _342  and  _343
REMARK  135  A    between atoms: _346  and  _347
REMARK  136  A    between atoms: _352  and  _354
REMARK  137  A    between atoms: _354  and  _355
REMARK  138  A    between atoms: _354  and  _357
REMARK  139  A    between atoms: _357  and  _358
REMARK  140  A    between atoms: _363  and  _364
REMARK  141  A    between atoms: _366  and  _368
REMARK  142  A    between atoms: _368  and  _369
REMARK  143  A    between atoms: _368  and  _371
REMARK  144  A    between atoms: _371  and  _372
REMARK  145  A    between atoms: _377  and  _378
REMARK  146  A    between atoms: _380  and  _382
REMARK  147  A    between atoms: _382  and  _383
REMARK  148  A    between atoms: _385  and  _387
REMARK  149  A    between atoms: _387  and  _388
REMARK  150  A    between atoms: _387  and  _390
REMARK  151  A    between atoms: _390  and  _391
REMARK  152  A    between atoms: _391  and  _392
REMARK  153  A    between atoms: _397  and  _399
REMARK  154  A    between atoms: _399  and  _400
REMARK  155  A    between atoms: _403  and  _405
REMARK  156  A    between atoms: _405  and  _406
REMARK  157  A    between atoms: _409  and  _411
REMARK  158  A    between atoms: _411  and  _412
REMARK  159  A    between atoms: _411  and  _414
REMARK  160  A    between atoms: _414  and  _415
REMARK  161  A    between atoms: _425  and  _427
REMARK  162  A    between atoms: _427  and  _428
REMARK  163  A    between atoms: _427  and  _430
REMARK  164  A    between atoms: _430  and  _431
REMARK  165  A    between atoms: _437  and  _439
REMARK  166  A    between atoms: _439  and  _440
REMARK  167  A    between atoms: _439  and  _442
REMARK  168  A    between atoms: _442  and  _443
REMARK  169  A    between atoms: _448  and  _449
REMARK  170  A    between atoms: _451  and  _453
REMARK  171  A    between atoms: _453  and  _454
REMARK  172  A    between atoms: _453  and  _456
REMARK  173  A    between atoms: _456  and  _457
REMARK  174  A    between atoms: _460  and  _462
REMARK  175  A    between atoms: _462  and  _463
REMARK  176  A    between atoms: _462  and  _465
REMARK  177  A    between atoms: _465  and  _466
REMARK  178  A    between atoms: _476  and  _478
REMARK  179  A    between atoms: _478  and  _479
REMARK  180  A    between atoms: _478  and  _481
REMARK  181  A    between atoms: _481  and  _482
REMARK  182  A    between atoms: _485  and  _487
REMARK  183  A    between atoms: _487  and  _488
REMARK  184  A    between atoms: _487  and  _490
REMARK  185  A    between atoms: _490  and  _491
REMARK  186  A    between atoms: _496  and  _497
REMARK  187  A    between atoms: _499  and  _501
REMARK  188  A    between atoms: _501  and  _502
REMARK  189  A    between atoms: _501  and  _504
REMARK  190  A    between atoms: _504  and  _505
REMARK  191  A    between atoms: _511  and  _513
REMARK  192  A    between atoms: _513  and  _514
REMARK  193  A    between atoms: _517  and  _519
REMARK  194  A    between atoms: _519  and  _520
REMARK  195  A    between atoms: _519  and  _522
REMARK  196  A    between atoms: _522  and  _523
REMARK  197  A    between atoms: _525  and  _527
REMARK  198  A    between atoms: _527  and  _528
REMARK  199  A    between atoms: _530  and  _532
REMARK  200  A    between atoms: _532  and  _533
REMARK  201  A    between atoms: _532  and  _535
REMARK  202  A    between atoms: _535  and  _536
REMARK  203  A    between atoms: _536  and  _537
REMARK  204  A    between atoms: _543  and  _544
REMARK  205  A    between atoms: _549  and  _551
REMARK  206  A    between atoms: _551  and  _552
REMARK  207  A    between atoms: _551  and  _554
REMARK  208  A    between atoms: _554  and  _555
REMARK  209  A    between atoms: _560  and  _561
REMARK  210  A    between atoms: _563  and  _565
REMARK  211  A    between atoms: _565  and  _566
REMARK  212  A    between atoms: _565  and  _568
REMARK  213  A    between atoms: _568  and  _569
REMARK  214  A    between atoms: _569  and  _570
REMARK  215  A    between atoms: _570  and  _571
REMARK  216  A    between atoms: _580  and  _582
REMARK  217  A    between atoms: _582  and  _583
REMARK  218  A    between atoms: _582  and  _585
REMARK  219  A    between atoms: _585  and  _586
REMARK  220  A    between atoms: _591  and  _592
REMARK  221  A    between atoms: _594  and  _596
REMARK  222  A    between atoms: _596  and  _597
REMARK  223  A    between atoms: _596  and  _599
REMARK  224  A    between atoms: _599  and  _600
REMARK  225  A    between atoms: _600  and  _601
REMARK  226  A    between atoms: _604  and  _606
REMARK  227  A    between atoms: _606  and  _607
REMARK  228  A    between atoms: _606  and  _609
REMARK  229  A    between atoms: _609  and  _610
REMARK  230  A    between atoms: _610  and  _611
REMARK  231  A    between atoms: _611  and  _612
REMARK                            x       y       z     vdW  Elec       q    Type
REMARK                         _______ _______ _______ _____ _____    ______ ____
ROOT
ATOM      1  O   HOH     1      24.134   8.121  12.715  0.00  0.00    +0.000 OA
ENDROOT
TORSDOF 0
REMARK  Name = ../refined-set-2016/4zb6/4zb6_pocket.pdb
REMARK  231 active torsions:
REMARK  status: ('A' for Active; 'I' for Inactive)
REMARK    1  A    between atoms: _1  and  _3
REMARK    2  A    between atoms: _3  and  _4
REMARK    3  A    between atoms: _3  and  _6
REMARK    4  A    between atoms: _6  and  _7
REMARK    5  A    between atoms: _10  and  _12
REMARK    6  A    between atoms: _12  and  _13
REMARK    7  A    between atoms: _12  and  _15
REMARK    8  A    between atoms: _15  and  _16
REMARK    9  A    between atoms: _21  and  _23
REMARK   10  A    between atoms: _23  and  _24
REMARK   11  A    between atoms: _23  and  _26
REMARK   12  A    between atoms: _26  and  _27
REMARK   13  A    between atoms: _29  and  _31
REMARK   14  A    between atoms: _31  and  _32
REMARK   15  A    between atoms: _35  and  _36
REMARK   16  A    between atoms: _41  and  _43
REMARK   17  A    between atoms: _43  and  _44
REMARK   18  A    between atoms: _43  and  _46
REMARK   19  A    between atoms: _46  and  _47
REMARK   20  A    between atoms: _52  and  _54
REMARK   21  A    between atoms: _54  and  _55
REMARK   22  A    between atoms: _57  and  _59
REMARK   23  A    between atoms: _59  and  _60
REMARK   24  A    between atoms: _59  and  _62
REMARK   25  A    between atoms: _62  and  _63
REMARK   26  A    between atoms: _73  and  _75
REMARK   27  A    between atoms: _75  and  _76
REMARK   28  A    between atoms: _75  and  _78
REMARK   29  A    between atoms: _78  and  _79
REMARK   30  A    between atoms: _79  and  _80
REMARK   31  A    between atoms: _80  and  _81
REMARK   32  A    between atoms: _81  and  _82
REMARK   33  A    between atoms: _86  and  _88
REMARK   34  A    between atoms: _88  and  _89
REMARK   35  A    between atoms: _88  and  _91
REMARK   36  A    between atoms: _94  and  _96
REMARK   37  A    between atoms: _96  and  _97
REMARK   38  A    between atoms: _96  and  _99
REMARK   39  A    between atoms: _99  and  _100
REMARK   40  A    between atoms: _103  and  _105
REMARK   41  A    between atoms: _105  and  _106
REMARK   42  A    between atoms: _105  and  _108
REMARK   43  A    between atoms: _108  and  _109
REMARK   44  A    between atoms: _112  and  _114
REMARK   45  A    between atoms: _114  and  _115
REMARK   46  A    between atoms: _114  and  _117
REMARK   47  A    between atoms: _117  and  _118
REMARK   48  A    between atoms: _118  and  _119
REMARK   49  A    between atoms: _121  and  _123
REMARK   50  A    between atoms: _123  and  _124
REMARK   51  A    between atoms: _126  and  _128
REMARK   52  A    between atoms: _128  and  _129
REMARK   53  A    between atoms: _128  and  _131
REMARK   54  A    between atoms: _131  and  _132
REMARK   55  A    between atoms: _137  and  _139
REMARK   56  A    between atoms: _139  and  _140
REMARK   57  A    between atoms: _139  and  _142
REMARK   58  A    between atoms: _142  and  _143
REMARK   59  A    between atoms: _143  and  _144
REMARK   60  A    between atoms: _144  and  _145
REMARK   61  A    between atoms: _145  and  _146
REMARK   62  A    between atoms: _150  and  _152
REMARK   63  A    between atoms: _152  and  _153
REMARK   64  A    between atoms: _152  and  _155
REMARK   65  A    between atoms: _155  and  _156
REMARK   66  A    between atoms: _161  and  _162
REMARK   67  A    between atoms: _164  and  _166
REMARK   68  A    between atoms: _166  and  _167
REMARK   69  A    between atoms: _166  and  _169
REMARK   70  A    between atoms: _169  and  _170
REMARK   71  A    between atoms: _175  and  _177
REMARK   72  A    between atoms: _177  and  _178
REMARK   73  A    between atoms: _177  and  _180
REMARK   74  A    between atoms: _180  and  _181
REMARK   75  A    between atoms: _186  and  _188
REMARK   76  A    between atoms: _188  and  _189
REMARK   77  A    between atoms: _191  and  _193
REMARK   78  A    between atoms: _193  and  _194
REMARK   79  A    between atoms: _193  and  _196
REMARK   80  A    between atoms: _196  and  _197
REMARK   81  A    between atoms: _197  and  _198
REMARK   82  A    between atoms: _198  and  _199
REMARK   83  A    between atoms: _208  and  _210
REMARK   84  A    between atoms: _210  and  _211
REMARK   85  A    between atoms: _210  and  _213
REMARK   86  A    between atoms: _217  and  _218
REMARK   87  A    between atoms: _223  and  _225
REMARK   88  A    between atoms: _225  and  _226
REMARK   89  A    between atoms: _229  and  _231
REMARK   90  A    between atoms: _231  and  _232
REMARK   91  A    between atoms: _231  and  _234
REMARK   92  A    between atoms: _234  and  _235
REMARK   93  A    between atoms: _245  and  _247
REMARK   94  A    between atoms: _247  and  _248
REMARK   95  A    between atoms: _247  and  _250
REMARK   96  A    between atoms: _250  and  _251
REMARK   97  A    between atoms: _251  and  _252
REMARK   98  A    between atoms: _255  and  _257
REMARK   99  A    between atoms: _257  and  _258
REMARK  100  A    between atoms: _257  and  _260
REMARK  101  A    between atoms: _260  and  _261
REMARK  102  A    between atoms: _263  and  _265
REMARK  103  A    between atoms: _265  and  _266
REMARK  104  A    between atoms: _265  and  _268
REMARK  105  A    between atoms: _268  and  _269
REMARK  106  A    between atoms: _274  and  _276
REMARK  107  A    between atoms: _276  and  _277
REMARK  108  A    between atoms: _280  and  _282
REMARK  109  A    between atoms: _282  and  _283
REMARK  110  A    between atoms: _282  and  _285
REMARK  111  A    between atoms: _288  and  _290
REMARK  112  A    between atoms: _290  and  _291
REMARK  113  A    between atoms: _290  and  _293
REMARK  114  A    between atoms: _293  and  _294
REMARK  115  A    between atoms: _297  and  _299
REMARK  116  A    between atoms: _299  and  _300
REMARK  117  A    between atoms: _299  and  _302
REMARK  118  A    between atoms: _302  and  _303
REMARK  119  A    between atoms: _303  and  _304
REMARK  120  A    between atoms: _309  and  _311
REMARK  121  A    between atoms: _311  and  _312
REMARK  122  A    between atoms: _315  and  _317
REMARK  123  A    between atoms: _317  and  _318
REMARK  124  A    between atoms: _317  and  _320
REMARK  125  A    between atoms: _320  and  _321
REMARK  126  A    between atoms: _323  and  _325
REMARK  127  A    between atoms: _325  and  _326
REMARK  128  A    between atoms: _328  and  _330
REMARK  129  A    between atoms: _330  and  _331
REMARK  130  A    between atoms: _330  and  _333
REMARK  131  A    between atoms: _333  and  _334
REMARK  132  A    between atoms: _334  and  _335
REMARK  133  A    between atoms: _340  and  _342
REMARK  134  A    between atoms: _342  and  _343
REMARK  135  A    between atoms: _346  and  _347
REMARK  136  A    between atoms: _352  and  _354
REMARK  137  A    between atoms: _354  and  _355
REMARK  138  A    between atoms: _354  and  _357
REMARK  139  A    between atoms: _357  and  _358
REMARK  140  A    between atoms: _363  and  _364
REMARK  141  A    between atoms: _366  and  _368
REMARK  142  A    between atoms: _368  and  _369
REMARK  143  A    between atoms: _368  and  _371
REMARK  144  A    between atoms: _371  and  _372
REMARK  145  A    between atoms: _377  and  _378
REMARK  146  A    between atoms: _380  and  _382
REMARK  147  A    between atoms: _382  and  _383
REMARK  148  A    between atoms: _385  and  _387
REMARK  149  A    between atoms: _387  and  _388
REMARK  150  A    between atoms: _387  and  _390
REMARK  151  A    between atoms: _390  and  _391
REMARK  152  A    between atoms: _391  and  _392
REMARK  153  A    between atoms: _397  and  _399
REMARK  154  A    between atoms: _399  and  _400
REMARK  155  A    between atoms: _403  and  _405
REMARK  156  A    between atoms: _405  and  _406
REMARK  157  A    between atoms: _409  and  _411
REMARK  158  A    between atoms: _411  and  _412
REMARK  159  A    between atoms: _411  and  _414
REMARK  160  A    between atoms: _414  and  _415
REMARK  161  A    between atoms: _425  and  _427
REMARK  162  A    between atoms: _427  and  _428
REMARK  163  A    between atoms: _427  and  _430
REMARK  164  A    between atoms: _430  and  _431
REMARK  165  A    between atoms: _437  and  _439
REMARK  166  A    between atoms: _439  and  _440
REMARK  167  A    between atoms: _439  and  _442
REMARK  168  A    between atoms: _442  and  _443
REMARK  169  A    between atoms: _448  and  _449
REMARK  170  A    between atoms: _451  and  _453
REMARK  171  A    between atoms: _453  and  _454
REMARK  172  A    between atoms: _453  and  _456
REMARK  173  A    between atoms: _456  and  _457
REMARK  174  A    between atoms: _460  and  _462
REMARK  175  A    between atoms: _462  and  _463
REMARK  176  A    between atoms: _462  and  _465
REMARK  177  A    between atoms: _465  and  _466
REMARK  178  A    between atoms: _476  and  _478
REMARK  179  A    between atoms: _478  and  _479
REMARK  180  A    between atoms: _478  and  _481
REMARK  181  A    between atoms: _481  and  _482
REMARK  182  A    between atoms: _485  and  _487
REMARK  183  A    between atoms: _487  and  _488
REMARK  184  A    between atoms: _487  and  _490
REMARK  185  A    between atoms: _490  and  _491
REMARK  186  A    between atoms: _496  and  _497
REMARK  187  A    between atoms: _499  and  _501
REMARK  188  A    between atoms: _501  and  _502
REMARK  189  A    between atoms: _501  and  _504
REMARK  190  A    between atoms: _504  and  _505
REMARK  191  A    between atoms: _511  and  _513
REMARK  192  A    between atoms: _513  and  _514
REMARK  193  A    between atoms: _517  and  _519
REMARK  194  A    between atoms: _519  and  _520
REMARK  195  A    between atoms: _519  and  _522
REMARK  196  A    between atoms: _522  and  _523
REMARK  197  A    between atoms: _525  and  _527
REMARK  198  A    between atoms: _527  and  _528
REMARK  199  A    between atoms: _530  and  _532
REMARK  200  A    between atoms: _532  and  _533
REMARK  201  A    between atoms: _532  and  _535
REMARK  202  A    between atoms: _535  and  _536
REMARK  203  A    between atoms: _536  and  _537
REMARK  204  A    between atoms: _543  and  _544
REMARK  205  A    between atoms: _549  and  _551
REMARK  206  A    between atoms: _551  and  _552
REMARK  207  A    between atoms: _551  and  _554
REMARK  208  A    between atoms: _554  and  _555
REMARK  209  A    between atoms: _560  and  _561
REMARK  210  A    between atoms: _563  and  _565
REMARK  211  A    between atoms: _565  and  _566
REMARK  212  A    between atoms: _565  and  _568
REMARK  213  A    between atoms: _568  and  _569
REMARK  214  A    between atoms: _569  and  _570
REMARK  215  A    between atoms: _570  and  _571
REMARK  216  A    between atoms: _580  and  _582
REMARK  217  A    between atoms: _582  and  _583
REMARK  218  A    between atoms: _582  and  _585
REMARK  219  A    between atoms: _585  and  _586
REMARK  220  A    between atoms: _591  and  _592
REMARK  221  A    between atoms: _594  and  _596
REMARK  222  A    between atoms: _596  and  _597
REMARK  223  A    between atoms: _596  and  _599
REMARK  224  A    between atoms: _599  and  _600
REMARK  225  A    between atoms: _600  and  _601
REMARK  226  A    between atoms: _604  and  _606
REMARK  227  A    between atoms: _606  and  _607
REMARK  228  A    between atoms: _606  and  _609
REMARK  229  A    between atoms: _609  and  _610
REMARK  230  A    between atoms: _610  and  _611
REMARK  231  A    between atoms: _611  and  _612
REMARK                            x       y       z     vdW  Elec       q    Type
REMARK                         _______ _______ _______ _____ _____    ______ ____
ROOT
ATOM      1  O   HOH     1      27.158   4.500   1.206  0.00  0.00    +0.000 OA
ENDROOT
TORSDOF 0
REMARK  Name = ../refined-set-2016/4zb6/4zb6_pocket.pdb
REMARK  231 active torsions:
REMARK  status: ('A' for Active; 'I' for Inactive)
REMARK    1  A    between atoms: _1  and  _3
REMARK    2  A    between atoms: _3  and  _4
REMARK    3  A    between atoms: _3  and  _6
REMARK    4  A    between atoms: _6  and  _7
REMARK    5  A    between atoms: _10  and  _12
REMARK    6  A    between atoms: _12  and  _13
REMARK    7  A    between atoms: _12  and  _15
REMARK    8  A    between atoms: _15  and  _16
REMARK    9  A    between atoms: _21  and  _23
REMARK   10  A    between atoms: _23  and  _24
REMARK   11  A    between atoms: _23  and  _26
REMARK   12  A    between atoms: _26  and  _27
REMARK   13  A    between atoms: _29  and  _31
REMARK   14  A    between atoms: _31  and  _32
REMARK   15  A    between atoms: _35  and  _36
REMARK   16  A    between atoms: _41  and  _43
REMARK   17  A    between atoms: _43  and  _44
REMARK   18  A    between atoms: _43  and  _46
REMARK   19  A    between atoms: _46  and  _47
REMARK   20  A    between atoms: _52  and  _54
REMARK   21  A    between atoms: _54  and  _55
REMARK   22  A    between atoms: _57  and  _59
REMARK   23  A    between atoms: _59  and  _60
REMARK   24  A    between atoms: _59  and  _62
REMARK   25  A    between atoms: _62  and  _63
REMARK   26  A    between atoms: _73  and  _75
REMARK   27  A    between atoms: _75  and  _76
REMARK   28  A    between atoms: _75  and  _78
REMARK   29  A    between atoms: _78  and  _79
REMARK   30  A    between atoms: _79  and  _80
REMARK   31  A    between atoms: _80  and  _81
REMARK   32  A    between atoms: _81  and  _82
REMARK   33  A    between atoms: _86  and  _88
REMARK   34  A    between atoms: _88  and  _89
REMARK   35  A    between atoms: _88  and  _91
REMARK   36  A    between atoms: _94  and  _96
REMARK   37  A    between atoms: _96  and  _97
REMARK   38  A    between atoms: _96  and  _99
REMARK   39  A    between atoms: _99  and  _100
REMARK   40  A    between atoms: _103  and  _105
REMARK   41  A    between atoms: _105  and  _106
REMARK   42  A    between atoms: _105  and  _108
REMARK   43  A    between atoms: _108  and  _109
REMARK   44  A    between atoms: _112  and  _114
REMARK   45  A    between atoms: _114  and  _115
REMARK   46  A    between atoms: _114  and  _117
REMARK   47  A    between atoms: _117  and  _118
REMARK   48  A    between atoms: _118  and  _119
REMARK   49  A    between atoms: _121  and  _123
REMARK   50  A    between atoms: _123  and  _124
REMARK   51  A    between atoms: _126  and  _128
REMARK   52  A    between atoms: _128  and  _129
REMARK   53  A    between atoms: _128  and  _131
REMARK   54  A    between atoms: _131  and  _132
REMARK   55  A    between atoms: _137  and  _139
REMARK   56  A    between atoms: _139  and  _140
REMARK   57  A    between atoms: _139  and  _142
REMARK   58  A    between atoms: _142  and  _143
REMARK   59  A    between atoms: _143  and  _144
REMARK   60  A    between atoms: _144  and  _145
REMARK   61  A    between atoms: _145  and  _146
REMARK   62  A    between atoms: _150  and  _152
REMARK   63  A    between atoms: _152  and  _153
REMARK   64  A    between atoms: _152  and  _155
REMARK   65  A    between atoms: _155  and  _156
REMARK   66  A    between atoms: _161  and  _162
REMARK   67  A    between atoms: _164  and  _166
REMARK   68  A    between atoms: _166  and  _167
REMARK   69  A    between atoms: _166  and  _169
REMARK   70  A    between atoms: _169  and  _170
REMARK   71  A    between atoms: _175  and  _177
REMARK   72  A    between atoms: _177  and  _178
REMARK   73  A    between atoms: _177  and  _180
REMARK   74  A    between atoms: _180  and  _181
REMARK   75  A    between atoms: _186  and  _188
REMARK   76  A    between atoms: _188  and  _189
REMARK   77  A    between atoms: _191  and  _193
REMARK   78  A    between atoms: _193  and  _194
REMARK   79  A    between atoms: _193  and  _196
REMARK   80  A    between atoms: _196  and  _197
REMARK   81  A    between atoms: _197  and  _198
REMARK   82  A    between atoms: _198  and  _199
REMARK   83  A    between atoms: _208  and  _210
REMARK   84  A    between atoms: _210  and  _211
REMARK   85  A    between atoms: _210  and  _213
REMARK   86  A    between atoms: _217  and  _218
REMARK   87  A    between atoms: _223  and  _225
REMARK   88  A    between atoms: _225  and  _226
REMARK   89  A    between atoms: _229  and  _231
REMARK   90  A    between atoms: _231  and  _232
REMARK   91  A    between atoms: _231  and  _234
REMARK   92  A    between atoms: _234  and  _235
REMARK   93  A    between atoms: _245  and  _247
REMARK   94  A    between atoms: _247  and  _248
REMARK   95  A    between atoms: _247  and  _250
REMARK   96  A    between atoms: _250  and  _251
REMARK   97  A    between atoms: _251  and  _252
REMARK   98  A    between atoms: _255  and  _257
REMARK   99  A    between atoms: _257  and  _258
REMARK  100  A    between atoms: _257  and  _260
REMARK  101  A    between atoms: _260  and  _261
REMARK  102  A    between atoms: _263  and  _265
REMARK  103  A    between atoms: _265  and  _266
REMARK  104  A    between atoms: _265  and  _268
REMARK  105  A    between atoms: _268  and  _269
REMARK  106  A    between atoms: _274  and  _276
REMARK  107  A    between atoms: _276  and  _277
REMARK  108  A    between atoms: _280  and  _282
REMARK  109  A    between atoms: _282  and  _283
REMARK  110  A    between atoms: _282  and  _285
REMARK  111  A    between atoms: _288  and  _290
REMARK  112  A    between atoms: _290  and  _291
REMARK  113  A    between atoms: _290  and  _293
REMARK  114  A    between atoms: _293  and  _294
REMARK  115  A    between atoms: _297  and  _299
REMARK  116  A    between atoms: _299  and  _300
REMARK  117  A    between atoms: _299  and  _302
REMARK  118  A    between atoms: _302  and  _303
REMARK  119  A    between atoms: _303  and  _304
REMARK  120  A    between atoms: _309  and  _311
REMARK  121  A    between atoms: _311  and  _312
REMARK  122  A    between atoms: _315  and  _317
REMARK  123  A    between atoms: _317  and  _318
REMARK  124  A    between atoms: _317  and  _320
REMARK  125  A    between atoms: _320  and  _321
REMARK  126  A    between atoms: _323  and  _325
REMARK  127  A    between atoms: _325  and  _326
REMARK  128  A    between atoms: _328  and  _330
REMARK  129  A    between atoms: _330  and  _331
REMARK  130  A    between atoms: _330  and  _333
REMARK  131  A    between atoms: _333  and  _334
REMARK  132  A    between atoms: _334  and  _335
REMARK  133  A    between atoms: _340  and  _342
REMARK  134  A    between atoms: _342  and  _343
REMARK  135  A    between atoms: _346  and  _347
REMARK  136  A    between atoms: _352  and  _354
REMARK  137  A    between atoms: _354  and  _355
REMARK  138  A    between atoms: _354  and  _357
REMARK  139  A    between atoms: _357  and  _358
REMARK  140  A    between atoms: _363  and  _364
REMARK  141  A    between atoms: _366  and  _368
REMARK  142  A    between atoms: _368  and  _369
REMARK  143  A    between atoms: _368  and  _371
REMARK  144  A    between atoms: _371  and  _372
REMARK  145  A    between atoms: _377  and  _378
REMARK  146  A    between atoms: _380  and  _382
REMARK  147  A    between atoms: _382  and  _383
REMARK  148  A    between atoms: _385  and  _387
REMARK  149  A    between atoms: _387  and  _388
REMARK  150  A    between atoms: _387  and  _390
REMARK  151  A    between atoms: _390  and  _391
REMARK  152  A    between atoms: _391  and  _392
REMARK  153  A    between atoms: _397  and  _399
REMARK  154  A    between atoms: _399  and  _400
REMARK  155  A    between atoms: _403  and  _405
REMARK  156  A    between atoms: _405  and  _406
REMARK  157  A    between atoms: _409  and  _411
REMARK  158  A    between atoms: _411  and  _412
REMARK  159  A    between atoms: _411  and  _414
REMARK  160  A    between atoms: _414  and  _415
REMARK  161  A    between atoms: _425  and  _427
REMARK  162  A    between atoms: _427  and  _428
REMARK  163  A    between atoms: _427  and  _430
REMARK  164  A    between atoms: _430  and  _431
REMARK  165  A    between atoms: _437  and  _439
REMARK  166  A    between atoms: _439  and  _440
REMARK  167  A    between atoms: _439  and  _442
REMARK  168  A    between atoms: _442  and  _443
REMARK  169  A    between atoms: _448  and  _449
REMARK  170  A    between atoms: _451  and  _453
REMARK  171  A    between atoms: _453  and  _454
REMARK  172  A    between atoms: _453  and  _456
REMARK  173  A    between atoms: _456  and  _457
REMARK  174  A    between atoms: _460  and  _462
REMARK  175  A    between atoms: _462  and  _463
REMARK  176  A    between atoms: _462  and  _465
REMARK  177  A    between atoms: _465  and  _466
REMARK  178  A    between atoms: _476  and  _478
REMARK  179  A    between atoms: _478  and  _479
REMARK  180  A    between atoms: _478  and  _481
REMARK  181  A    between atoms: _481  and  _482
REMARK  182  A    between atoms: _485  and  _487
REMARK  183  A    between atoms: _487  and  _488
REMARK  184  A    between atoms: _487  and  _490
REMARK  185  A    between atoms: _490  and  _491
REMARK  186  A    between atoms: _496  and  _497
REMARK  187  A    between atoms: _499  and  _501
REMARK  188  A    between atoms: _501  and  _502
REMARK  189  A    between atoms: _501  and  _504
REMARK  190  A    between atoms: _504  and  _505
REMARK  191  A    between atoms: _511  and  _513
REMARK  192  A    between atoms: _513  and  _514
REMARK  193  A    between atoms: _517  and  _519
REMARK  194  A    between atoms: _519  and  _520
REMARK  195  A    between atoms: _519  and  _522
REMARK  196  A    between atoms: _522  and  _523
REMARK  197  A    between atoms: _525  and  _527
REMARK  198  A    between atoms: _527  and  _528
REMARK  199  A    between atoms: _530  and  _532
REMARK  200  A    between atoms: _532  and  _533
REMARK  201  A    between atoms: _532  and  _535
REMARK  202  A    between atoms: _535  and  _536
REMARK  203  A    between atoms: _536  and  _537
REMARK  204  A    between atoms: _543  and  _544
REMARK  205  A    between atoms: _549  and  _551
REMARK  206  A    between atoms: _551  and  _552
REMARK  207  A    between atoms: _551  and  _554
REMARK  208  A    between atoms: _554  and  _555
REMARK  209  A    between atoms: _560  and  _561
REMARK  210  A    between atoms: _563  and  _565
REMARK  211  A    between atoms: _565  and  _566
REMARK  212  A    between atoms: _565  and  _568
REMARK  213  A    between atoms: _568  and  _569
REMARK  214  A    between atoms: _569  and  _570
REMARK  215  A    between atoms: _570  and  _571
REMARK  216  A    between atoms: _580  and  _582
REMARK  217  A    between atoms: _582  and  _583
REMARK  218  A    between atoms: _582  and  _585
REMARK  219  A    between atoms: _585  and  _586
REMARK  220  A    between atoms: _591  and  _592
REMARK  221  A    between atoms: _594  and  _596
REMARK  222  A    between atoms: _596  and  _597
REMARK  223  A    between atoms: _596  and  _599
REMARK  224  A    between atoms: _599  and  _600
REMARK  225  A    between atoms: _600  and  _601
REMARK  226  A    between atoms: _604  and  _606
REMARK  227  A    between atoms: _606  and  _607
REMARK  228  A    between atoms: _606  and  _609
REMARK  229  A    between atoms: _609  and  _610
REMARK  230  A    between atoms: _610  and  _611
REMARK  231  A    between atoms: _611  and  _612
REMARK                            x       y       z     vdW  Elec       q    Type
REMARK                         _______ _______ _______ _____ _____    ______ ____
ROOT
ATOM      1  O   HOH     1      27.493  -6.690  12.236  0.00  0.00    +0.000 OA
ENDROOT
TORSDOF 0
REMARK  Name = ../refined-set-2016/4zb6/4zb6_pocket.pdb
REMARK  231 active torsions:
REMARK  status: ('A' for Active; 'I' for Inactive)
REMARK    1  A    between atoms: _1  and  _3
REMARK    2  A    between atoms: _3  and  _4
REMARK    3  A    between atoms: _3  and  _6
REMARK    4  A    between atoms: _6  and  _7
REMARK    5  A    between atoms: _10  and  _12
REMARK    6  A    between atoms: _12  and  _13
REMARK    7  A    between atoms: _12  and  _15
REMARK    8  A    between atoms: _15  and  _16
REMARK    9  A    between atoms: _21  and  _23
REMARK   10  A    between atoms: _23  and  _24
REMARK   11  A    between atoms: _23  and  _26
REMARK   12  A    between atoms: _26  and  _27
REMARK   13  A    between atoms: _29  and  _31
REMARK   14  A    between atoms: _31  and  _32
REMARK   15  A    between atoms: _35  and  _36
REMARK   16  A    between atoms: _41  and  _43
REMARK   17  A    between atoms: _43  and  _44
REMARK   18  A    between atoms: _43  and  _46
REMARK   19  A    between atoms: _46  and  _47
REMARK   20  A    between atoms: _52  and  _54
REMARK   21  A    between atoms: _54  and  _55
REMARK   22  A    between atoms: _57  and  _59
REMARK   23  A    between atoms: _59  and  _60
REMARK   24  A    between atoms: _59  and  _62
REMARK   25  A    between atoms: _62  and  _63
REMARK   26  A    between atoms: _73  and  _75
REMARK   27  A    between atoms: _75  and  _76
REMARK   28  A    between atoms: _75  and  _78
REMARK   29  A    between atoms: _78  and  _79
REMARK   30  A    between atoms: _79  and  _80
REMARK   31  A    between atoms: _80  and  _81
REMARK   32  A    between atoms: _81  and  _82
REMARK   33  A    between atoms: _86  and  _88
REMARK   34  A    between atoms: _88  and  _89
REMARK   35  A    between atoms: _88  and  _91
REMARK   36  A    between atoms: _94  and  _96
REMARK   37  A    between atoms: _96  and  _97
REMARK   38  A    between atoms: _96  and  _99
REMARK   39  A    between atoms: _99  and  _100
REMARK   40  A    between atoms: _103  and  _105
REMARK   41  A    between atoms: _105  and  _106
REMARK   42  A    between atoms: _105  and  _108
REMARK   43  A    between atoms: _108  and  _109
REMARK   44  A    between atoms: _112  and  _114
REMARK   45  A    between atoms: _114  and  _115
REMARK   46  A    between atoms: _114  and  _117
REMARK   47  A    between atoms: _117  and  _118
REMARK   48  A    between atoms: _118  and  _119
REMARK   49  A    between atoms: _121  and  _123
REMARK   50  A    between atoms: _123  and  _124
REMARK   51  A    between atoms: _126  and  _128
REMARK   52  A    between atoms: _128  and  _129
REMARK   53  A    between atoms: _128  and  _131
REMARK   54  A    between atoms: _131  and  _132
REMARK   55  A    between atoms: _137  and  _139
REMARK   56  A    between atoms: _139  and  _140
REMARK   57  A    between atoms: _139  and  _142
REMARK   58  A    between atoms: _142  and  _143
REMARK   59  A    between atoms: _143  and  _144
REMARK   60  A    between atoms: _144  and  _145
REMARK   61  A    between atoms: _145  and  _146
REMARK   62  A    between atoms: _150  and  _152
REMARK   63  A    between atoms: _152  and  _153
REMARK   64  A    between atoms: _152  and  _155
REMARK   65  A    between atoms: _155  and  _156
REMARK   66  A    between atoms: _161  and  _162
REMARK   67  A    between atoms: _164  and  _166
REMARK   68  A    between atoms: _166  and  _167
REMARK   69  A    between atoms: _166  and  _169
REMARK   70  A    between atoms: _169  and  _170
REMARK   71  A    between atoms: _175  and  _177
REMARK   72  A    between atoms: _177  and  _178
REMARK   73  A    between atoms: _177  and  _180
REMARK   74  A    between atoms: _180  and  _181
REMARK   75  A    between atoms: _186  and  _188
REMARK   76  A    between atoms: _188  and  _189
REMARK   77  A    between atoms: _191  and  _193
REMARK   78  A    between atoms: _193  and  _194
REMARK   79  A    between atoms: _193  and  _196
REMARK   80  A    between atoms: _196  and  _197
REMARK   81  A    between atoms: _197  and  _198
REMARK   82  A    between atoms: _198  and  _199
REMARK   83  A    between atoms: _208  and  _210
REMARK   84  A    between atoms: _210  and  _211
REMARK   85  A    between atoms: _210  and  _213
REMARK   86  A    between atoms: _217  and  _218
REMARK   87  A    between atoms: _223  and  _225
REMARK   88  A    between atoms: _225  and  _226
REMARK   89  A    between atoms: _229  and  _231
REMARK   90  A    between atoms: _231  and  _232
REMARK   91  A    between atoms: _231  and  _234
REMARK   92  A    between atoms: _234  and  _235
REMARK   93  A    between atoms: _245  and  _247
REMARK   94  A    between atoms: _247  and  _248
REMARK   95  A    between atoms: _247  and  _250
REMARK   96  A    between atoms: _250  and  _251
REMARK   97  A    between atoms: _251  and  _252
REMARK   98  A    between atoms: _255  and  _257
REMARK   99  A    between atoms: _257  and  _258
REMARK  100  A    between atoms: _257  and  _260
REMARK  101  A    between atoms: _260  and  _261
REMARK  102  A    between atoms: _263  and  _265
REMARK  103  A    between atoms: _265  and  _266
REMARK  104  A    between atoms: _265  and  _268
REMARK  105  A    between atoms: _268  and  _269
REMARK  106  A    between atoms: _274  and  _276
REMARK  107  A    between atoms: _276  and  _277
REMARK  108  A    between atoms: _280  and  _282
REMARK  109  A    between atoms: _282  and  _283
REMARK  110  A    between atoms: _282  and  _285
REMARK  111  A    between atoms: _288  and  _290
REMARK  112  A    between atoms: _290  and  _291
REMARK  113  A    between atoms: _290  and  _293
REMARK  114  A    between atoms: _293  and  _294
REMARK  115  A    between atoms: _297  and  _299
REMARK  116  A    between atoms: _299  and  _300
REMARK  117  A    between atoms: _299  and  _302
REMARK  118  A    between atoms: _302  and  _303
REMARK  119  A    between atoms: _303  and  _304
REMARK  120  A    between atoms: _309  and  _311
REMARK  121  A    between atoms: _311  and  _312
REMARK  122  A    between atoms: _315  and  _317
REMARK  123  A    between atoms: _317  and  _318
REMARK  124  A    between atoms: _317  and  _320
REMARK  125  A    between atoms: _320  and  _321
REMARK  126  A    between atoms: _323  and  _325
REMARK  127  A    between atoms: _325  and  _326
REMARK  128  A    between atoms: _328  and  _330
REMARK  129  A    between atoms: _330  and  _331
REMARK  130  A    between atoms: _330  and  _333
REMARK  131  A    between atoms: _333  and  _334
REMARK  132  A    between atoms: _334  and  _335
REMARK  133  A    between atoms: _340  and  _342
REMARK  134  A    between atoms: _342  and  _343
REMARK  135  A    between atoms: _346  and  _347
REMARK  136  A    between atoms: _352  and  _354
REMARK  137  A    between atoms: _354  and  _355
REMARK  138  A    between atoms: _354  and  _357
REMARK  139  A    between atoms: _357  and  _358
REMARK  140  A    between atoms: _363  and  _364
REMARK  141  A    between atoms: _366  and  _368
REMARK  142  A    between atoms: _368  and  _369
REMARK  143  A    between atoms: _368  and  _371
REMARK  144  A    between atoms: _371  and  _372
REMARK  145  A    between atoms: _377  and  _378
REMARK  146  A    between atoms: _380  and  _382
REMARK  147  A    between atoms: _382  and  _383
REMARK  148  A    between atoms: _385  and  _387
REMARK  149  A    between atoms: _387  and  _388
REMARK  150  A    between atoms: _387  and  _390
REMARK  151  A    between atoms: _390  and  _391
REMARK  152  A    between atoms: _391  and  _392
REMARK  153  A    between atoms: _397  and  _399
REMARK  154  A    between atoms: _399  and  _400
REMARK  155  A    between atoms: _403  and  _405
REMARK  156  A    between atoms: _405  and  _406
REMARK  157  A    between atoms: _409  and  _411
REMARK  158  A    between atoms: _411  and  _412
REMARK  159  A    between atoms: _411  and  _414
REMARK  160  A    between atoms: _414  and  _415
REMARK  161  A    between atoms: _425  and  _427
REMARK  162  A    between atoms: _427  and  _428
REMARK  163  A    between atoms: _427  and  _430
REMARK  164  A    between atoms: _430  and  _431
REMARK  165  A    between atoms: _437  and  _439
REMARK  166  A    between atoms: _439  and  _440
REMARK  167  A    between atoms: _439  and  _442
REMARK  168  A    between atoms: _442  and  _443
REMARK  169  A    between atoms: _448  and  _449
REMARK  170  A    between atoms: _451  and  _453
REMARK  171  A    between atoms: _453  and  _454
REMARK  172  A    between atoms: _453  and  _456
REMARK  173  A    between atoms: _456  and  _457
REMARK  174  A    between atoms: _460  and  _462
REMARK  175  A    between atoms: _462  and  _463
REMARK  176  A    between atoms: _462  and  _465
REMARK  177  A    between atoms: _465  and  _466
REMARK  178  A    between atoms: _476  and  _478
REMARK  179  A    between atoms: _478  and  _479
REMARK  180  A    between atoms: _478  and  _481
REMARK  181  A    between atoms: _481  and  _482
REMARK  182  A    between atoms: _485  and  _487
REMARK  183  A    between atoms: _487  and  _488
REMARK  184  A    between atoms: _487  and  _490
REMARK  185  A    between atoms: _490  and  _491
REMARK  186  A    between atoms: _496  and  _497
REMARK  187  A    between atoms: _499  and  _501
REMARK  188  A    between atoms: _501  and  _502
REMARK  189  A    between atoms: _501  and  _504
REMARK  190  A    between atoms: _504  and  _505
REMARK  191  A    between atoms: _511  and  _513
REMARK  192  A    between atoms: _513  and  _514
REMARK  193  A    between atoms: _517  and  _519
REMARK  194  A    between atoms: _519  and  _520
REMARK  195  A    between atoms: _519  and  _522
REMARK  196  A    between atoms: _522  and  _523
REMARK  197  A    between atoms: _525  and  _527
REMARK  198  A    between atoms: _527  and  _528
REMARK  199  A    between atoms: _530  and  _532
REMARK  200  A    between atoms: _532  and  _533
REMARK  201  A    between atoms: _532  and  _535
REMARK  202  A    between atoms: _535  and  _536
REMARK  203  A    between atoms: _536  and  _537
REMARK  204  A    between atoms: _543  and  _544
REMARK  205  A    between atoms: _549  and  _551
REMARK  206  A    between atoms: _551  and  _552
REMARK  207  A    between atoms: _551  and  _554
REMARK  208  A    between atoms: _554  and  _555
REMARK  209  A    between atoms: _560  and  _561
REMARK  210  A    between atoms: _563  and  _565
REMARK  211  A    between atoms: _565  and  _566
REMARK  212  A    between atoms: _565  and  _568
REMARK  213  A    between atoms: _568  and  _569
REMARK  214  A    between atoms: _569  and  _570
REMARK  215  A    between atoms: _570  and  _571
REMARK  216  A    between atoms: _580  and  _582
REMARK  217  A    between atoms: _582  and  _583
REMARK  218  A    between atoms: _582  and  _585
REMARK  219  A    between atoms: _585  and  _586
REMARK  220  A    between atoms: _591  and  _592
REMARK  221  A    between atoms: _594  and  _596
REMARK  222  A    between atoms: _596  and  _597
REMARK  223  A    between atoms: _596  and  _599
REMARK  224  A    between atoms: _599  and  _600
REMARK  225  A    between atoms: _600  and  _601
REMARK  226  A    between atoms: _604  and  _606
REMARK  227  A    between atoms: _606  and  _607
REMARK  228  A    between atoms: _606  and  _609
REMARK  229  A    between atoms: _609  and  _610
REMARK  230  A    between atoms: _610  and  _611
REMARK  231  A    between atoms: _611  and  _612
REMARK                            x       y       z     vdW  Elec       q    Type
REMARK                         _______ _______ _______ _____ _____    ______ ____
ROOT
ATOM      1  O   HOH     1      28.013   5.184  15.714  0.00  0.00    +0.000 OA
ENDROOT
TORSDOF 0
REMARK  Name = ../refined-set-2016/4zb6/4zb6_pocket.pdb
REMARK  231 active torsions:
REMARK  status: ('A' for Active; 'I' for Inactive)
REMARK    1  A    between atoms: _1  and  _3
REMARK    2  A    between atoms: _3  and  _4
REMARK    3  A    between atoms: _3  and  _6
REMARK    4  A    between atoms: _6  and  _7
REMARK    5  A    between atoms: _10  and  _12
REMARK    6  A    between atoms: _12  and  _13
REMARK    7  A    between atoms: _12  and  _15
REMARK    8  A    between atoms: _15  and  _16
REMARK    9  A    between atoms: _21  and  _23
REMARK   10  A    between atoms: _23  and  _24
REMARK   11  A    between atoms: _23  and  _26
REMARK   12  A    between atoms: _26  and  _27
REMARK   13  A    between atoms: _29  and  _31
REMARK   14  A    between atoms: _31  and  _32
REMARK   15  A    between atoms: _35  and  _36
REMARK   16  A    between atoms: _41  and  _43
REMARK   17  A    between atoms: _43  and  _44
REMARK   18  A    between atoms: _43  and  _46
REMARK   19  A    between atoms: _46  and  _47
REMARK   20  A    between atoms: _52  and  _54
REMARK   21  A    between atoms: _54  and  _55
REMARK   22  A    between atoms: _57  and  _59
REMARK   23  A    between atoms: _59  and  _60
REMARK   24  A    between atoms: _59  and  _62
REMARK   25  A    between atoms: _62  and  _63
REMARK   26  A    between atoms: _73  and  _75
REMARK   27  A    between atoms: _75  and  _76
REMARK   28  A    between atoms: _75  and  _78
REMARK   29  A    between atoms: _78  and  _79
REMARK   30  A    between atoms: _79  and  _80
REMARK   31  A    between atoms: _80  and  _81
REMARK   32  A    between atoms: _81  and  _82
REMARK   33  A    between atoms: _86  and  _88
REMARK   34  A    between atoms: _88  and  _89
REMARK   35  A    between atoms: _88  and  _91
REMARK   36  A    between atoms: _94  and  _96
REMARK   37  A    between atoms: _96  and  _97
REMARK   38  A    between atoms: _96  and  _99
REMARK   39  A    between atoms: _99  and  _100
REMARK   40  A    between atoms: _103  and  _105
REMARK   41  A    between atoms: _105  and  _106
REMARK   42  A    between atoms: _105  and  _108
REMARK   43  A    between atoms: _108  and  _109
REMARK   44  A    between atoms: _112  and  _114
REMARK   45  A    between atoms: _114  and  _115
REMARK   46  A    between atoms: _114  and  _117
REMARK   47  A    between atoms: _117  and  _118
REMARK   48  A    between atoms: _118  and  _119
REMARK   49  A    between atoms: _121  and  _123
REMARK   50  A    between atoms: _123  and  _124
REMARK   51  A    between atoms: _126  and  _128
REMARK   52  A    between atoms: _128  and  _129
REMARK   53  A    between atoms: _128  and  _131
REMARK   54  A    between atoms: _131  and  _132
REMARK   55  A    between atoms: _137  and  _139
REMARK   56  A    between atoms: _139  and  _140
REMARK   57  A    between atoms: _139  and  _142
REMARK   58  A    between atoms: _142  and  _143
REMARK   59  A    between atoms: _143  and  _144
REMARK   60  A    between atoms: _144  and  _145
REMARK   61  A    between atoms: _145  and  _146
REMARK   62  A    between atoms: _150  and  _152
REMARK   63  A    between atoms: _152  and  _153
REMARK   64  A    between atoms: _152  and  _155
REMARK   65  A    between atoms: _155  and  _156
REMARK   66  A    between atoms: _161  and  _162
REMARK   67  A    between atoms: _164  and  _166
REMARK   68  A    between atoms: _166  and  _167
REMARK   69  A    between atoms: _166  and  _169
REMARK   70  A    between atoms: _169  and  _170
REMARK   71  A    between atoms: _175  and  _177
REMARK   72  A    between atoms: _177  and  _178
REMARK   73  A    between atoms: _177  and  _180
REMARK   74  A    between atoms: _180  and  _181
REMARK   75  A    between atoms: _186  and  _188
REMARK   76  A    between atoms: _188  and  _189
REMARK   77  A    between atoms: _191  and  _193
REMARK   78  A    between atoms: _193  and  _194
REMARK   79  A    between atoms: _193  and  _196
REMARK   80  A    between atoms: _196  and  _197
REMARK   81  A    between atoms: _197  and  _198
REMARK   82  A    between atoms: _198  and  _199
REMARK   83  A    between atoms: _208  and  _210
REMARK   84  A    between atoms: _210  and  _211
REMARK   85  A    between atoms: _210  and  _213
REMARK   86  A    between atoms: _217  and  _218
REMARK   87  A    between atoms: _223  and  _225
REMARK   88  A    between atoms: _225  and  _226
REMARK   89  A    between atoms: _229  and  _231
REMARK   90  A    between atoms: _231  and  _232
REMARK   91  A    between atoms: _231  and  _234
REMARK   92  A    between atoms: _234  and  _235
REMARK   93  A    between atoms: _245  and  _247
REMARK   94  A    between atoms: _247  and  _248
REMARK   95  A    between atoms: _247  and  _250
REMARK   96  A    between atoms: _250  and  _251
REMARK   97  A    between atoms: _251  and  _252
REMARK   98  A    between atoms: _255  and  _257
REMARK   99  A    between atoms: _257  and  _258
REMARK  100  A    between atoms: _257  and  _260
REMARK  101  A    between atoms: _260  and  _261
REMARK  102  A    between atoms: _263  and  _265
REMARK  103  A    between atoms: _265  and  _266
REMARK  104  A    between atoms: _265  and  _268
REMARK  105  A    between atoms: _268  and  _269
REMARK  106  A    between atoms: _274  and  _276
REMARK  107  A    between atoms: _276  and  _277
REMARK  108  A    between atoms: _280  and  _282
REMARK  109  A    between atoms: _282  and  _283
REMARK  110  A    between atoms: _282  and  _285
REMARK  111  A    between atoms: _288  and  _290
REMARK  112  A    between atoms: _290  and  _291
REMARK  113  A    between atoms: _290  and  _293
REMARK  114  A    between atoms: _293  and  _294
REMARK  115  A    between atoms: _297  and  _299
REMARK  116  A    between atoms: _299  and  _300
REMARK  117  A    between atoms: _299  and  _302
REMARK  118  A    between atoms: _302  and  _303
REMARK  119  A    between atoms: _303  and  _304
REMARK  120  A    between atoms: _309  and  _311
REMARK  121  A    between atoms: _311  and  _312
REMARK  122  A    between atoms: _315  and  _317
REMARK  123  A    between atoms: _317  and  _318
REMARK  124  A    between atoms: _317  and  _320
REMARK  125  A    between atoms: _320  and  _321
REMARK  126  A    between atoms: _323  and  _325
REMARK  127  A    between atoms: _325  and  _326
REMARK  128  A    between atoms: _328  and  _330
REMARK  129  A    between atoms: _330  and  _331
REMARK  130  A    between atoms: _330  and  _333
REMARK  131  A    between atoms: _333  and  _334
REMARK  132  A    between atoms: _334  and  _335
REMARK  133  A    between atoms: _340  and  _342
REMARK  134  A    between atoms: _342  and  _343
REMARK  135  A    between atoms: _346  and  _347
REMARK  136  A    between atoms: _352  and  _354
REMARK  137  A    between atoms: _354  and  _355
REMARK  138  A    between atoms: _354  and  _357
REMARK  139  A    between atoms: _357  and  _358
REMARK  140  A    between atoms: _363  and  _364
REMARK  141  A    between atoms: _366  and  _368
REMARK  142  A    between atoms: _368  and  _369
REMARK  143  A    between atoms: _368  and  _371
REMARK  144  A    between atoms: _371  and  _372
REMARK  145  A    between atoms: _377  and  _378
REMARK  146  A    between atoms: _380  and  _382
REMARK  147  A    between atoms: _382  and  _383
REMARK  148  A    between atoms: _385  and  _387
REMARK  149  A    between atoms: _387  and  _388
REMARK  150  A    between atoms: _387  and  _390
REMARK  151  A    between atoms: _390  and  _391
REMARK  152  A    between atoms: _391  and  _392
REMARK  153  A    between atoms: _397  and  _399
REMARK  154  A    between atoms: _399  and  _400
REMARK  155  A    between atoms: _403  and  _405
REMARK  156  A    between atoms: _405  and  _406
REMARK  157  A    between atoms: _409  and  _411
REMARK  158  A    between atoms: _411  and  _412
REMARK  159  A    between atoms: _411  and  _414
REMARK  160  A    between atoms: _414  and  _415
REMARK  161  A    between atoms: _425  and  _427
REMARK  162  A    between atoms: _427  and  _428
REMARK  163  A    between atoms: _427  and  _430
REMARK  164  A    between atoms: _430  and  _431
REMARK  165  A    between atoms: _437  and  _439
REMARK  166  A    between atoms: _439  and  _440
REMARK  167  A    between atoms: _439  and  _442
REMARK  168  A    between atoms: _442  and  _443
REMARK  169  A    between atoms: _448  and  _449
REMARK  170  A    between atoms: _451  and  _453
REMARK  171  A    between atoms: _453  and  _454
REMARK  172  A    between atoms: _453  and  _456
REMARK  173  A    between atoms: _456  and  _457
REMARK  174  A    between atoms: _460  and  _462
REMARK  175  A    between atoms: _462  and  _463
REMARK  176  A    between atoms: _462  and  _465
REMARK  177  A    between atoms: _465  and  _466
REMARK  178  A    between atoms: _476  and  _478
REMARK  179  A    between atoms: _478  and  _479
REMARK  180  A    between atoms: _478  and  _481
REMARK  181  A    between atoms: _481  and  _482
REMARK  182  A    between atoms: _485  and  _487
REMARK  183  A    between atoms: _487  and  _488
REMARK  184  A    between atoms: _487  and  _490
REMARK  185  A    between atoms: _490  and  _491
REMARK  186  A    between atoms: _496  and  _497
REMARK  187  A    between atoms: _499  and  _501
REMARK  188  A    between atoms: _501  and  _502
REMARK  189  A    between atoms: _501  and  _504
REMARK  190  A    between atoms: _504  and  _505
REMARK  191  A    between atoms: _511  and  _513
REMARK  192  A    between atoms: _513  and  _514
REMARK  193  A    between atoms: _517  and  _519
REMARK  194  A    between atoms: _519  and  _520
REMARK  195  A    between atoms: _519  and  _522
REMARK  196  A    between atoms: _522  and  _523
REMARK  197  A    between atoms: _525  and  _527
REMARK  198  A    between atoms: _527  and  _528
REMARK  199  A    between atoms: _530  and  _532
REMARK  200  A    between atoms: _532  and  _533
REMARK  201  A    between atoms: _532  and  _535
REMARK  202  A    between atoms: _535  and  _536
REMARK  203  A    between atoms: _536  and  _537
REMARK  204  A    between atoms: _543  and  _544
REMARK  205  A    between atoms: _549  and  _551
REMARK  206  A    between atoms: _551  and  _552
REMARK  207  A    between atoms: _551  and  _554
REMARK  208  A    between atoms: _554  and  _555
REMARK  209  A    between atoms: _560  and  _561
REMARK  210  A    between atoms: _563  and  _565
REMARK  211  A    between atoms: _565  and  _566
REMARK  212  A    between atoms: _565  and  _568
REMARK  213  A    between atoms: _568  and  _569
REMARK  214  A    between atoms: _569  and  _570
REMARK  215  A    between atoms: _570  and  _571
REMARK  216  A    between atoms: _580  and  _582
REMARK  217  A    between atoms: _582  and  _583
REMARK  218  A    between atoms: _582  and  _585
REMARK  219  A    between atoms: _585  and  _586
REMARK  220  A    between atoms: _591  and  _592
REMARK  221  A    between atoms: _594  and  _596
REMARK  222  A    between atoms: _596  and  _597
REMARK  223  A    between atoms: _596  and  _599
REMARK  224  A    between atoms: _599  and  _600
REMARK  225  A    between atoms: _600  and  _601
REMARK  226  A    between atoms: _604  and  _606
REMARK  227  A    between atoms: _606  and  _607
REMARK  228  A    between atoms: _606  and  _609
REMARK  229  A    between atoms: _609  and  _610
REMARK  230  A    between atoms: _610  and  _611
REMARK  231  A    between atoms: _611  and  _612
REMARK                            x       y       z     vdW  Elec       q    Type
REMARK                         _______ _______ _______ _____ _____    ______ ____
ROOT
ATOM      1  O   HOH     1      27.631   2.520  15.828  0.00  0.00    +0.000 OA
ENDROOT
TORSDOF 0
REMARK  Name = ../refined-set-2016/4zb6/4zb6_pocket.pdb
REMARK  231 active torsions:
REMARK  status: ('A' for Active; 'I' for Inactive)
REMARK    1  A    between atoms: _1  and  _3
REMARK    2  A    between atoms: _3  and  _4
REMARK    3  A    between atoms: _3  and  _6
REMARK    4  A    between atoms: _6  and  _7
REMARK    5  A    between atoms: _10  and  _12
REMARK    6  A    between atoms: _12  and  _13
REMARK    7  A    between atoms: _12  and  _15
REMARK    8  A    between atoms: _15  and  _16
REMARK    9  A    between atoms: _21  and  _23
REMARK   10  A    between atoms: _23  and  _24
REMARK   11  A    between atoms: _23  and  _26
REMARK   12  A    between atoms: _26  and  _27
REMARK   13  A    between atoms: _29  and  _31
REMARK   14  A    between atoms: _31  and  _32
REMARK   15  A    between atoms: _35  and  _36
REMARK   16  A    between atoms: _41  and  _43
REMARK   17  A    between atoms: _43  and  _44
REMARK   18  A    between atoms: _43  and  _46
REMARK   19  A    between atoms: _46  and  _47
REMARK   20  A    between atoms: _52  and  _54
REMARK   21  A    between atoms: _54  and  _55
REMARK   22  A    between atoms: _57  and  _59
REMARK   23  A    between atoms: _59  and  _60
REMARK   24  A    between atoms: _59  and  _62
REMARK   25  A    between atoms: _62  and  _63
REMARK   26  A    between atoms: _73  and  _75
REMARK   27  A    between atoms: _75  and  _76
REMARK   28  A    between atoms: _75  and  _78
REMARK   29  A    between atoms: _78  and  _79
REMARK   30  A    between atoms: _79  and  _80
REMARK   31  A    between atoms: _80  and  _81
REMARK   32  A    between atoms: _81  and  _82
REMARK   33  A    between atoms: _86  and  _88
REMARK   34  A    between atoms: _88  and  _89
REMARK   35  A    between atoms: _88  and  _91
REMARK   36  A    between atoms: _94  and  _96
REMARK   37  A    between atoms: _96  and  _97
REMARK   38  A    between atoms: _96  and  _99
REMARK   39  A    between atoms: _99  and  _100
REMARK   40  A    between atoms: _103  and  _105
REMARK   41  A    between atoms: _105  and  _106
REMARK   42  A    between atoms: _105  and  _108
REMARK   43  A    between atoms: _108  and  _109
REMARK   44  A    between atoms: _112  and  _114
REMARK   45  A    between atoms: _114  and  _115
REMARK   46  A    between atoms: _114  and  _117
REMARK   47  A    between atoms: _117  and  _118
REMARK   48  A    between atoms: _118  and  _119
REMARK   49  A    between atoms: _121  and  _123
REMARK   50  A    between atoms: _123  and  _124
REMARK   51  A    between atoms: _126  and  _128
REMARK   52  A    between atoms: _128  and  _129
REMARK   53  A    between atoms: _128  and  _131
REMARK   54  A    between atoms: _131  and  _132
REMARK   55  A    between atoms: _137  and  _139
REMARK   56  A    between atoms: _139  and  _140
REMARK   57  A    between atoms: _139  and  _142
REMARK   58  A    between atoms: _142  and  _143
REMARK   59  A    between atoms: _143  and  _144
REMARK   60  A    between atoms: _144  and  _145
REMARK   61  A    between atoms: _145  and  _146
REMARK   62  A    between atoms: _150  and  _152
REMARK   63  A    between atoms: _152  and  _153
REMARK   64  A    between atoms: _152  and  _155
REMARK   65  A    between atoms: _155  and  _156
REMARK   66  A    between atoms: _161  and  _162
REMARK   67  A    between atoms: _164  and  _166
REMARK   68  A    between atoms: _166  and  _167
REMARK   69  A    between atoms: _166  and  _169
REMARK   70  A    between atoms: _169  and  _170
REMARK   71  A    between atoms: _175  and  _177
REMARK   72  A    between atoms: _177  and  _178
REMARK   73  A    between atoms: _177  and  _180
REMARK   74  A    between atoms: _180  and  _181
REMARK   75  A    between atoms: _186  and  _188
REMARK   76  A    between atoms: _188  and  _189
REMARK   77  A    between atoms: _191  and  _193
REMARK   78  A    between atoms: _193  and  _194
REMARK   79  A    between atoms: _193  and  _196
REMARK   80  A    between atoms: _196  and  _197
REMARK   81  A    between atoms: _197  and  _198
REMARK   82  A    between atoms: _198  and  _199
REMARK   83  A    between atoms: _208  and  _210
REMARK   84  A    between atoms: _210  and  _211
REMARK   85  A    between atoms: _210  and  _213
REMARK   86  A    between atoms: _217  and  _218
REMARK   87  A    between atoms: _223  and  _225
REMARK   88  A    between atoms: _225  and  _226
REMARK   89  A    between atoms: _229  and  _231
REMARK   90  A    between atoms: _231  and  _232
REMARK   91  A    between atoms: _231  and  _234
REMARK   92  A    between atoms: _234  and  _235
REMARK   93  A    between atoms: _245  and  _247
REMARK   94  A    between atoms: _247  and  _248
REMARK   95  A    between atoms: _247  and  _250
REMARK   96  A    between atoms: _250  and  _251
REMARK   97  A    between atoms: _251  and  _252
REMARK   98  A    between atoms: _255  and  _257
REMARK   99  A    between atoms: _257  and  _258
REMARK  100  A    between atoms: _257  and  _260
REMARK  101  A    between atoms: _260  and  _261
REMARK  102  A    between atoms: _263  and  _265
REMARK  103  A    between atoms: _265  and  _266
REMARK  104  A    between atoms: _265  and  _268
REMARK  105  A    between atoms: _268  and  _269
REMARK  106  A    between atoms: _274  and  _276
REMARK  107  A    between atoms: _276  and  _277
REMARK  108  A    between atoms: _280  and  _282
REMARK  109  A    between atoms: _282  and  _283
REMARK  110  A    between atoms: _282  and  _285
REMARK  111  A    between atoms: _288  and  _290
REMARK  112  A    between atoms: _290  and  _291
REMARK  113  A    between atoms: _290  and  _293
REMARK  114  A    between atoms: _293  and  _294
REMARK  115  A    between atoms: _297  and  _299
REMARK  116  A    between atoms: _299  and  _300
REMARK  117  A    between atoms: _299  and  _302
REMARK  118  A    between atoms: _302  and  _303
REMARK  119  A    between atoms: _303  and  _304
REMARK  120  A    between atoms: _309  and  _311
REMARK  121  A    between atoms: _311  and  _312
REMARK  122  A    between atoms: _315  and  _317
REMARK  123  A    between atoms: _317  and  _318
REMARK  124  A    between atoms: _317  and  _320
REMARK  125  A    between atoms: _320  and  _321
REMARK  126  A    between atoms: _323  and  _325
REMARK  127  A    between atoms: _325  and  _326
REMARK  128  A    between atoms: _328  and  _330
REMARK  129  A    between atoms: _330  and  _331
REMARK  130  A    between atoms: _330  and  _333
REMARK  131  A    between atoms: _333  and  _334
REMARK  132  A    between atoms: _334  and  _335
REMARK  133  A    between atoms: _340  and  _342
REMARK  134  A    between atoms: _342  and  _343
REMARK  135  A    between atoms: _346  and  _347
REMARK  136  A    between atoms: _352  and  _354
REMARK  137  A    between atoms: _354  and  _355
REMARK  138  A    between atoms: _354  and  _357
REMARK  139  A    between atoms: _357  and  _358
REMARK  140  A    between atoms: _363  and  _364
REMARK  141  A    between atoms: _366  and  _368
REMARK  142  A    between atoms: _368  and  _369
REMARK  143  A    between atoms: _368  and  _371
REMARK  144  A    between atoms: _371  and  _372
REMARK  145  A    between atoms: _377  and  _378
REMARK  146  A    between atoms: _380  and  _382
REMARK  147  A    between atoms: _382  and  _383
REMARK  148  A    between atoms: _385  and  _387
REMARK  149  A    between atoms: _387  and  _388
REMARK  150  A    between atoms: _387  and  _390
REMARK  151  A    between atoms: _390  and  _391
REMARK  152  A    between atoms: _391  and  _392
REMARK  153  A    between atoms: _397  and  _399
REMARK  154  A    between atoms: _399  and  _400
REMARK  155  A    between atoms: _403  and  _405
REMARK  156  A    between atoms: _405  and  _406
REMARK  157  A    between atoms: _409  and  _411
REMARK  158  A    between atoms: _411  and  _412
REMARK  159  A    between atoms: _411  and  _414
REMARK  160  A    between atoms: _414  and  _415
REMARK  161  A    between atoms: _425  and  _427
REMARK  162  A    between atoms: _427  and  _428
REMARK  163  A    between atoms: _427  and  _430
REMARK  164  A    between atoms: _430  and  _431
REMARK  165  A    between atoms: _437  and  _439
REMARK  166  A    between atoms: _439  and  _440
REMARK  167  A    between atoms: _439  and  _442
REMARK  168  A    between atoms: _442  and  _443
REMARK  169  A    between atoms: _448  and  _449
REMARK  170  A    between atoms: _451  and  _453
REMARK  171  A    between atoms: _453  and  _454
REMARK  172  A    between atoms: _453  and  _456
REMARK  173  A    between atoms: _456  and  _457
REMARK  174  A    between atoms: _460  and  _462
REMARK  175  A    between atoms: _462  and  _463
REMARK  176  A    between atoms: _462  and  _465
REMARK  177  A    between atoms: _465  and  _466
REMARK  178  A    between atoms: _476  and  _478
REMARK  179  A    between atoms: _478  and  _479
REMARK  180  A    between atoms: _478  and  _481
REMARK  181  A    between atoms: _481  and  _482
REMARK  182  A    between atoms: _485  and  _487
REMARK  183  A    between atoms: _487  and  _488
REMARK  184  A    between atoms: _487  and  _490
REMARK  185  A    between atoms: _490  and  _491
REMARK  186  A    between atoms: _496  and  _497
REMARK  187  A    between atoms: _499  and  _501
REMARK  188  A    between atoms: _501  and  _502
REMARK  189  A    between atoms: _501  and  _504
REMARK  190  A    between atoms: _504  and  _505
REMARK  191  A    between atoms: _511  and  _513
REMARK  192  A    between atoms: _513  and  _514
REMARK  193  A    between atoms: _517  and  _519
REMARK  194  A    between atoms: _519  and  _520
REMARK  195  A    between atoms: _519  and  _522
REMARK  196  A    between atoms: _522  and  _523
REMARK  197  A    between atoms: _525  and  _527
REMARK  198  A    between atoms: _527  and  _528
REMARK  199  A    between atoms: _530  and  _532
REMARK  200  A    between atoms: _532  and  _533
REMARK  201  A    between atoms: _532  and  _535
REMARK  202  A    between atoms: _535  and  _536
REMARK  203  A    between atoms: _536  and  _537
REMARK  204  A    between atoms: _543  and  _544
REMARK  205  A    between atoms: _549  and  _551
REMARK  206  A    between atoms: _551  and  _552
REMARK  207  A    between atoms: _551  and  _554
REMARK  208  A    between atoms: _554  and  _555
REMARK  209  A    between atoms: _560  and  _561
REMARK  210  A    between atoms: _563  and  _565
REMARK  211  A    between atoms: _565  and  _566
REMARK  212  A    between atoms: _565  and  _568
REMARK  213  A    between atoms: _568  and  _569
REMARK  214  A    between atoms: _569  and  _570
REMARK  215  A    between atoms: _570  and  _571
REMARK  216  A    between atoms: _580  and  _582
REMARK  217  A    between atoms: _582  and  _583
REMARK  218  A    between atoms: _582  and  _585
REMARK  219  A    between atoms: _585  and  _586
REMARK  220  A    between atoms: _591  and  _592
REMARK  221  A    between atoms: _594  and  _596
REMARK  222  A    between atoms: _596  and  _597
REMARK  223  A    between atoms: _596  and  _599
REMARK  224  A    between atoms: _599  and  _600
REMARK  225  A    between atoms: _600  and  _601
REMARK  226  A    between atoms: _604  and  _606
REMARK  227  A    between atoms: _606  and  _607
REMARK  228  A    between atoms: _606  and  _609
REMARK  229  A    between atoms: _609  and  _610
REMARK  230  A    between atoms: _610  and  _611
REMARK  231  A    between atoms: _611  and  _612
REMARK                            x       y       z     vdW  Elec       q    Type
REMARK                         _______ _______ _______ _____ _____    ______ ____
ROOT
ATOM      1  O   HOH     1      26.005  -4.345  15.445  0.00  0.00    +0.000 OA
ENDROOT
TORSDOF 0
REMARK  Name = ../refined-set-2016/4zb6/4zb6_pocket.pdb
REMARK  231 active torsions:
REMARK  status: ('A' for Active; 'I' for Inactive)
REMARK    1  A    between atoms: _1  and  _3
REMARK    2  A    between atoms: _3  and  _4
REMARK    3  A    between atoms: _3  and  _6
REMARK    4  A    between atoms: _6  and  _7
REMARK    5  A    between atoms: _10  and  _12
REMARK    6  A    between atoms: _12  and  _13
REMARK    7  A    between atoms: _12  and  _15
REMARK    8  A    between atoms: _15  and  _16
REMARK    9  A    between atoms: _21  and  _23
REMARK   10  A    between atoms: _23  and  _24
REMARK   11  A    between atoms: _23  and  _26
REMARK   12  A    between atoms: _26  and  _27
REMARK   13  A    between atoms: _29  and  _31
REMARK   14  A    between atoms: _31  and  _32
REMARK   15  A    between atoms: _35  and  _36
REMARK   16  A    between atoms: _41  and  _43
REMARK   17  A    between atoms: _43  and  _44
REMARK   18  A    between atoms: _43  and  _46
REMARK   19  A    between atoms: _46  and  _47
REMARK   20  A    between atoms: _52  and  _54
REMARK   21  A    between atoms: _54  and  _55
REMARK   22  A    between atoms: _57  and  _59
REMARK   23  A    between atoms: _59  and  _60
REMARK   24  A    between atoms: _59  and  _62
REMARK   25  A    between atoms: _62  and  _63
REMARK   26  A    between atoms: _73  and  _75
REMARK   27  A    between atoms: _75  and  _76
REMARK   28  A    between atoms: _75  and  _78
REMARK   29  A    between atoms: _78  and  _79
REMARK   30  A    between atoms: _79  and  _80
REMARK   31  A    between atoms: _80  and  _81
REMARK   32  A    between atoms: _81  and  _82
REMARK   33  A    between atoms: _86  and  _88
REMARK   34  A    between atoms: _88  and  _89
REMARK   35  A    between atoms: _88  and  _91
REMARK   36  A    between atoms: _94  and  _96
REMARK   37  A    between atoms: _96  and  _97
REMARK   38  A    between atoms: _96  and  _99
REMARK   39  A    between atoms: _99  and  _100
REMARK   40  A    between atoms: _103  and  _105
REMARK   41  A    between atoms: _105  and  _106
REMARK   42  A    between atoms: _105  and  _108
REMARK   43  A    between atoms: _108  and  _109
REMARK   44  A    between atoms: _112  and  _114
REMARK   45  A    between atoms: _114  and  _115
REMARK   46  A    between atoms: _114  and  _117
REMARK   47  A    between atoms: _117  and  _118
REMARK   48  A    between atoms: _118  and  _119
REMARK   49  A    between atoms: _121  and  _123
REMARK   50  A    between atoms: _123  and  _124
REMARK   51  A    between atoms: _126  and  _128
REMARK   52  A    between atoms: _128  and  _129
REMARK   53  A    between atoms: _128  and  _131
REMARK   54  A    between atoms: _131  and  _132
REMARK   55  A    between atoms: _137  and  _139
REMARK   56  A    between atoms: _139  and  _140
REMARK   57  A    between atoms: _139  and  _142
REMARK   58  A    between atoms: _142  and  _143
REMARK   59  A    between atoms: _143  and  _144
REMARK   60  A    between atoms: _144  and  _145
REMARK   61  A    between atoms: _145  and  _146
REMARK   62  A    between atoms: _150  and  _152
REMARK   63  A    between atoms: _152  and  _153
REMARK   64  A    between atoms: _152  and  _155
REMARK   65  A    between atoms: _155  and  _156
REMARK   66  A    between atoms: _161  and  _162
REMARK   67  A    between atoms: _164  and  _166
REMARK   68  A    between atoms: _166  and  _167
REMARK   69  A    between atoms: _166  and  _169
REMARK   70  A    between atoms: _169  and  _170
REMARK   71  A    between atoms: _175  and  _177
REMARK   72  A    between atoms: _177  and  _178
REMARK   73  A    between atoms: _177  and  _180
REMARK   74  A    between atoms: _180  and  _181
REMARK   75  A    between atoms: _186  and  _188
REMARK   76  A    between atoms: _188  and  _189
REMARK   77  A    between atoms: _191  and  _193
REMARK   78  A    between atoms: _193  and  _194
REMARK   79  A    between atoms: _193  and  _196
REMARK   80  A    between atoms: _196  and  _197
REMARK   81  A    between atoms: _197  and  _198
REMARK   82  A    between atoms: _198  and  _199
REMARK   83  A    between atoms: _208  and  _210
REMARK   84  A    between atoms: _210  and  _211
REMARK   85  A    between atoms: _210  and  _213
REMARK   86  A    between atoms: _217  and  _218
REMARK   87  A    between atoms: _223  and  _225
REMARK   88  A    between atoms: _225  and  _226
REMARK   89  A    between atoms: _229  and  _231
REMARK   90  A    between atoms: _231  and  _232
REMARK   91  A    between atoms: _231  and  _234
REMARK   92  A    between atoms: _234  and  _235
REMARK   93  A    between atoms: _245  and  _247
REMARK   94  A    between atoms: _247  and  _248
REMARK   95  A    between atoms: _247  and  _250
REMARK   96  A    between atoms: _250  and  _251
REMARK   97  A    between atoms: _251  and  _252
REMARK   98  A    between atoms: _255  and  _257
REMARK   99  A    between atoms: _257  and  _258
REMARK  100  A    between atoms: _257  and  _260
REMARK  101  A    between atoms: _260  and  _261
REMARK  102  A    between atoms: _263  and  _265
REMARK  103  A    between atoms: _265  and  _266
REMARK  104  A    between atoms: _265  and  _268
REMARK  105  A    between atoms: _268  and  _269
REMARK  106  A    between atoms: _274  and  _276
REMARK  107  A    between atoms: _276  and  _277
REMARK  108  A    between atoms: _280  and  _282
REMARK  109  A    between atoms: _282  and  _283
REMARK  110  A    between atoms: _282  and  _285
REMARK  111  A    between atoms: _288  and  _290
REMARK  112  A    between atoms: _290  and  _291
REMARK  113  A    between atoms: _290  and  _293
REMARK  114  A    between atoms: _293  and  _294
REMARK  115  A    between atoms: _297  and  _299
REMARK  116  A    between atoms: _299  and  _300
REMARK  117  A    between atoms: _299  and  _302
REMARK  118  A    between atoms: _302  and  _303
REMARK  119  A    between atoms: _303  and  _304
REMARK  120  A    between atoms: _309  and  _311
REMARK  121  A    between atoms: _311  and  _312
REMARK  122  A    between atoms: _315  and  _317
REMARK  123  A    between atoms: _317  and  _318
REMARK  124  A    between atoms: _317  and  _320
REMARK  125  A    between atoms: _320  and  _321
REMARK  126  A    between atoms: _323  and  _325
REMARK  127  A    between atoms: _325  and  _326
REMARK  128  A    between atoms: _328  and  _330
REMARK  129  A    between atoms: _330  and  _331
REMARK  130  A    between atoms: _330  and  _333
REMARK  131  A    between atoms: _333  and  _334
REMARK  132  A    between atoms: _334  and  _335
REMARK  133  A    between atoms: _340  and  _342
REMARK  134  A    between atoms: _342  and  _343
REMARK  135  A    between atoms: _346  and  _347
REMARK  136  A    between atoms: _352  and  _354
REMARK  137  A    between atoms: _354  and  _355
REMARK  138  A    between atoms: _354  and  _357
REMARK  139  A    between atoms: _357  and  _358
REMARK  140  A    between atoms: _363  and  _364
REMARK  141  A    between atoms: _366  and  _368
REMARK  142  A    between atoms: _368  and  _369
REMARK  143  A    between atoms: _368  and  _371
REMARK  144  A    between atoms: _371  and  _372
REMARK  145  A    between atoms: _377  and  _378
REMARK  146  A    between atoms: _380  and  _382
REMARK  147  A    between atoms: _382  and  _383
REMARK  148  A    between atoms: _385  and  _387
REMARK  149  A    between atoms: _387  and  _388
REMARK  150  A    between atoms: _387  and  _390
REMARK  151  A    between atoms: _390  and  _391
REMARK  152  A    between atoms: _391  and  _392
REMARK  153  A    between atoms: _397  and  _399
REMARK  154  A    between atoms: _399  and  _400
REMARK  155  A    between atoms: _403  and  _405
REMARK  156  A    between atoms: _405  and  _406
REMARK  157  A    between atoms: _409  and  _411
REMARK  158  A    between atoms: _411  and  _412
REMARK  159  A    between atoms: _411  and  _414
REMARK  160  A    between atoms: _414  and  _415
REMARK  161  A    between atoms: _425  and  _427
REMARK  162  A    between atoms: _427  and  _428
REMARK  163  A    between atoms: _427  and  _430
REMARK  164  A    between atoms: _430  and  _431
REMARK  165  A    between atoms: _437  and  _439
REMARK  166  A    between atoms: _439  and  _440
REMARK  167  A    between atoms: _439  and  _442
REMARK  168  A    between atoms: _442  and  _443
REMARK  169  A    between atoms: _448  and  _449
REMARK  170  A    between atoms: _451  and  _453
REMARK  171  A    between atoms: _453  and  _454
REMARK  172  A    between atoms: _453  and  _456
REMARK  173  A    between atoms: _456  and  _457
REMARK  174  A    between atoms: _460  and  _462
REMARK  175  A    between atoms: _462  and  _463
REMARK  176  A    between atoms: _462  and  _465
REMARK  177  A    between atoms: _465  and  _466
REMARK  178  A    between atoms: _476  and  _478
REMARK  179  A    between atoms: _478  and  _479
REMARK  180  A    between atoms: _478  and  _481
REMARK  181  A    between atoms: _481  and  _482
REMARK  182  A    between atoms: _485  and  _487
REMARK  183  A    between atoms: _487  and  _488
REMARK  184  A    between atoms: _487  and  _490
REMARK  185  A    between atoms: _490  and  _491
REMARK  186  A    between atoms: _496  and  _497
REMARK  187  A    between atoms: _499  and  _501
REMARK  188  A    between atoms: _501  and  _502
REMARK  189  A    between atoms: _501  and  _504
REMARK  190  A    between atoms: _504  and  _505
REMARK  191  A    between atoms: _511  and  _513
REMARK  192  A    between atoms: _513  and  _514
REMARK  193  A    between atoms: _517  and  _519
REMARK  194  A    between atoms: _519  and  _520
REMARK  195  A    between atoms: _519  and  _522
REMARK  196  A    between atoms: _522  and  _523
REMARK  197  A    between atoms: _525  and  _527
REMARK  198  A    between atoms: _527  and  _528
REMARK  199  A    between atoms: _530  and  _532
REMARK  200  A    between atoms: _532  and  _533
REMARK  201  A    between atoms: _532  and  _535
REMARK  202  A    between atoms: _535  and  _536
REMARK  203  A    between atoms: _536  and  _537
REMARK  204  A    between atoms: _543  and  _544
REMARK  205  A    between atoms: _549  and  _551
REMARK  206  A    between atoms: _551  and  _552
REMARK  207  A    between atoms: _551  and  _554
REMARK  208  A    between atoms: _554  and  _555
REMARK  209  A    between atoms: _560  and  _561
REMARK  210  A    between atoms: _563  and  _565
REMARK  211  A    between atoms: _565  and  _566
REMARK  212  A    between atoms: _565  and  _568
REMARK  213  A    between atoms: _568  and  _569
REMARK  214  A    between atoms: _569  and  _570
REMARK  215  A    between atoms: _570  and  _571
REMARK  216  A    between atoms: _580  and  _582
REMARK  217  A    between atoms: _582  and  _583
REMARK  218  A    between atoms: _582  and  _585
REMARK  219  A    between atoms: _585  and  _586
REMARK  220  A    between atoms: _591  and  _592
REMARK  221  A    between atoms: _594  and  _596
REMARK  222  A    between atoms: _596  and  _597
REMARK  223  A    between atoms: _596  and  _599
REMARK  224  A    between atoms: _599  and  _600
REMARK  225  A    between atoms: _600  and  _601
REMARK  226  A    between atoms: _604  and  _606
REMARK  227  A    between atoms: _606  and  _607
REMARK  228  A    between atoms: _606  and  _609
REMARK  229  A    between atoms: _609  and  _610
REMARK  230  A    between atoms: _610  and  _611
REMARK  231  A    between atoms: _611  and  _612
REMARK                            x       y       z     vdW  Elec       q    Type
REMARK                         _______ _______ _______ _____ _____    ______ ____
ROOT
ATOM      1  O   HOH     1      20.474  10.760   6.257  0.00  0.00    +0.000 OA
ENDROOT
TORSDOF 0
REMARK  Name = ../refined-set-2016/4zb6/4zb6_pocket.pdb
REMARK  231 active torsions:
REMARK  status: ('A' for Active; 'I' for Inactive)
REMARK    1  A    between atoms: _1  and  _3
REMARK    2  A    between atoms: _3  and  _4
REMARK    3  A    between atoms: _3  and  _6
REMARK    4  A    between atoms: _6  and  _7
REMARK    5  A    between atoms: _10  and  _12
REMARK    6  A    between atoms: _12  and  _13
REMARK    7  A    between atoms: _12  and  _15
REMARK    8  A    between atoms: _15  and  _16
REMARK    9  A    between atoms: _21  and  _23
REMARK   10  A    between atoms: _23  and  _24
REMARK   11  A    between atoms: _23  and  _26
REMARK   12  A    between atoms: _26  and  _27
REMARK   13  A    between atoms: _29  and  _31
REMARK   14  A    between atoms: _31  and  _32
REMARK   15  A    between atoms: _35  and  _36
REMARK   16  A    between atoms: _41  and  _43
REMARK   17  A    between atoms: _43  and  _44
REMARK   18  A    between atoms: _43  and  _46
REMARK   19  A    between atoms: _46  and  _47
REMARK   20  A    between atoms: _52  and  _54
REMARK   21  A    between atoms: _54  and  _55
REMARK   22  A    between atoms: _57  and  _59
REMARK   23  A    between atoms: _59  and  _60
REMARK   24  A    between atoms: _59  and  _62
REMARK   25  A    between atoms: _62  and  _63
REMARK   26  A    between atoms: _73  and  _75
REMARK   27  A    between atoms: _75  and  _76
REMARK   28  A    between atoms: _75  and  _78
REMARK   29  A    between atoms: _78  and  _79
REMARK   30  A    between atoms: _79  and  _80
REMARK   31  A    between atoms: _80  and  _81
REMARK   32  A    between atoms: _81  and  _82
REMARK   33  A    between atoms: _86  and  _88
REMARK   34  A    between atoms: _88  and  _89
REMARK   35  A    between atoms: _88  and  _91
REMARK   36  A    between atoms: _94  and  _96
REMARK   37  A    between atoms: _96  and  _97
REMARK   38  A    between atoms: _96  and  _99
REMARK   39  A    between atoms: _99  and  _100
REMARK   40  A    between atoms: _103  and  _105
REMARK   41  A    between atoms: _105  and  _106
REMARK   42  A    between atoms: _105  and  _108
REMARK   43  A    between atoms: _108  and  _109
REMARK   44  A    between atoms: _112  and  _114
REMARK   45  A    between atoms: _114  and  _115
REMARK   46  A    between atoms: _114  and  _117
REMARK   47  A    between atoms: _117  and  _118
REMARK   48  A    between atoms: _118  and  _119
REMARK   49  A    between atoms: _121  and  _123
REMARK   50  A    between atoms: _123  and  _124
REMARK   51  A    between atoms: _126  and  _128
REMARK   52  A    between atoms: _128  and  _129
REMARK   53  A    between atoms: _128  and  _131
REMARK   54  A    between atoms: _131  and  _132
REMARK   55  A    between atoms: _137  and  _139
REMARK   56  A    between atoms: _139  and  _140
REMARK   57  A    between atoms: _139  and  _142
REMARK   58  A    between atoms: _142  and  _143
REMARK   59  A    between atoms: _143  and  _144
REMARK   60  A    between atoms: _144  and  _145
REMARK   61  A    between atoms: _145  and  _146
REMARK   62  A    between atoms: _150  and  _152
REMARK   63  A    between atoms: _152  and  _153
REMARK   64  A    between atoms: _152  and  _155
REMARK   65  A    between atoms: _155  and  _156
REMARK   66  A    between atoms: _161  and  _162
REMARK   67  A    between atoms: _164  and  _166
REMARK   68  A    between atoms: _166  and  _167
REMARK   69  A    between atoms: _166  and  _169
REMARK   70  A    between atoms: _169  and  _170
REMARK   71  A    between atoms: _175  and  _177
REMARK   72  A    between atoms: _177  and  _178
REMARK   73  A    between atoms: _177  and  _180
REMARK   74  A    between atoms: _180  and  _181
REMARK   75  A    between atoms: _186  and  _188
REMARK   76  A    between atoms: _188  and  _189
REMARK   77  A    between atoms: _191  and  _193
REMARK   78  A    between atoms: _193  and  _194
REMARK   79  A    between atoms: _193  and  _196
REMARK   80  A    between atoms: _196  and  _197
REMARK   81  A    between atoms: _197  and  _198
REMARK   82  A    between atoms: _198  and  _199
REMARK   83  A    between atoms: _208  and  _210
REMARK   84  A    between atoms: _210  and  _211
REMARK   85  A    between atoms: _210  and  _213
REMARK   86  A    between atoms: _217  and  _218
REMARK   87  A    between atoms: _223  and  _225
REMARK   88  A    between atoms: _225  and  _226
REMARK   89  A    between atoms: _229  and  _231
REMARK   90  A    between atoms: _231  and  _232
REMARK   91  A    between atoms: _231  and  _234
REMARK   92  A    between atoms: _234  and  _235
REMARK   93  A    between atoms: _245  and  _247
REMARK   94  A    between atoms: _247  and  _248
REMARK   95  A    between atoms: _247  and  _250
REMARK   96  A    between atoms: _250  and  _251
REMARK   97  A    between atoms: _251  and  _252
REMARK   98  A    between atoms: _255  and  _257
REMARK   99  A    between atoms: _257  and  _258
REMARK  100  A    between atoms: _257  and  _260
REMARK  101  A    between atoms: _260  and  _261
REMARK  102  A    between atoms: _263  and  _265
REMARK  103  A    between atoms: _265  and  _266
REMARK  104  A    between atoms: _265  and  _268
REMARK  105  A    between atoms: _268  and  _269
REMARK  106  A    between atoms: _274  and  _276
REMARK  107  A    between atoms: _276  and  _277
REMARK  108  A    between atoms: _280  and  _282
REMARK  109  A    between atoms: _282  and  _283
REMARK  110  A    between atoms: _282  and  _285
REMARK  111  A    between atoms: _288  and  _290
REMARK  112  A    between atoms: _290  and  _291
REMARK  113  A    between atoms: _290  and  _293
REMARK  114  A    between atoms: _293  and  _294
REMARK  115  A    between atoms: _297  and  _299
REMARK  116  A    between atoms: _299  and  _300
REMARK  117  A    between atoms: _299  and  _302
REMARK  118  A    between atoms: _302  and  _303
REMARK  119  A    between atoms: _303  and  _304
REMARK  120  A    between atoms: _309  and  _311
REMARK  121  A    between atoms: _311  and  _312
REMARK  122  A    between atoms: _315  and  _317
REMARK  123  A    between atoms: _317  and  _318
REMARK  124  A    between atoms: _317  and  _320
REMARK  125  A    between atoms: _320  and  _321
REMARK  126  A    between atoms: _323  and  _325
REMARK  127  A    between atoms: _325  and  _326
REMARK  128  A    between atoms: _328  and  _330
REMARK  129  A    between atoms: _330  and  _331
REMARK  130  A    between atoms: _330  and  _333
REMARK  131  A    between atoms: _333  and  _334
REMARK  132  A    between atoms: _334  and  _335
REMARK  133  A    between atoms: _340  and  _342
REMARK  134  A    between atoms: _342  and  _343
REMARK  135  A    between atoms: _346  and  _347
REMARK  136  A    between atoms: _352  and  _354
REMARK  137  A    between atoms: _354  and  _355
REMARK  138  A    between atoms: _354  and  _357
REMARK  139  A    between atoms: _357  and  _358
REMARK  140  A    between atoms: _363  and  _364
REMARK  141  A    between atoms: _366  and  _368
REMARK  142  A    between atoms: _368  and  _369
REMARK  143  A    between atoms: _368  and  _371
REMARK  144  A    between atoms: _371  and  _372
REMARK  145  A    between atoms: _377  and  _378
REMARK  146  A    between atoms: _380  and  _382
REMARK  147  A    between atoms: _382  and  _383
REMARK  148  A    between atoms: _385  and  _387
REMARK  149  A    between atoms: _387  and  _388
REMARK  150  A    between atoms: _387  and  _390
REMARK  151  A    between atoms: _390  and  _391
REMARK  152  A    between atoms: _391  and  _392
REMARK  153  A    between atoms: _397  and  _399
REMARK  154  A    between atoms: _399  and  _400
REMARK  155  A    between atoms: _403  and  _405
REMARK  156  A    between atoms: _405  and  _406
REMARK  157  A    between atoms: _409  and  _411
REMARK  158  A    between atoms: _411  and  _412
REMARK  159  A    between atoms: _411  and  _414
REMARK  160  A    between atoms: _414  and  _415
REMARK  161  A    between atoms: _425  and  _427
REMARK  162  A    between atoms: _427  and  _428
REMARK  163  A    between atoms: _427  and  _430
REMARK  164  A    between atoms: _430  and  _431
REMARK  165  A    between atoms: _437  and  _439
REMARK  166  A    between atoms: _439  and  _440
REMARK  167  A    between atoms: _439  and  _442
REMARK  168  A    between atoms: _442  and  _443
REMARK  169  A    between atoms: _448  and  _449
REMARK  170  A    between atoms: _451  and  _453
REMARK  171  A    between atoms: _453  and  _454
REMARK  172  A    between atoms: _453  and  _456
REMARK  173  A    between atoms: _456  and  _457
REMARK  174  A    between atoms: _460  and  _462
REMARK  175  A    between atoms: _462  and  _463
REMARK  176  A    between atoms: _462  and  _465
REMARK  177  A    between atoms: _465  and  _466
REMARK  178  A    between atoms: _476  and  _478
REMARK  179  A    between atoms: _478  and  _479
REMARK  180  A    between atoms: _478  and  _481
REMARK  181  A    between atoms: _481  and  _482
REMARK  182  A    between atoms: _485  and  _487
REMARK  183  A    between atoms: _487  and  _488
REMARK  184  A    between atoms: _487  and  _490
REMARK  185  A    between atoms: _490  and  _491
REMARK  186  A    between atoms: _496  and  _497
REMARK  187  A    between atoms: _499  and  _501
REMARK  188  A    between atoms: _501  and  _502
REMARK  189  A    between atoms: _501  and  _504
REMARK  190  A    between atoms: _504  and  _505
REMARK  191  A    between atoms: _511  and  _513
REMARK  192  A    between atoms: _513  and  _514
REMARK  193  A    between atoms: _517  and  _519
REMARK  194  A    between atoms: _519  and  _520
REMARK  195  A    between atoms: _519  and  _522
REMARK  196  A    between atoms: _522  and  _523
REMARK  197  A    between atoms: _525  and  _527
REMARK  198  A    between atoms: _527  and  _528
REMARK  199  A    between atoms: _530  and  _532
REMARK  200  A    between atoms: _532  and  _533
REMARK  201  A    between atoms: _532  and  _535
REMARK  202  A    between atoms: _535  and  _536
REMARK  203  A    between atoms: _536  and  _537
REMARK  204  A    between atoms: _543  and  _544
REMARK  205  A    between atoms: _549  and  _551
REMARK  206  A    between atoms: _551  and  _552
REMARK  207  A    between atoms: _551  and  _554
REMARK  208  A    between atoms: _554  and  _555
REMARK  209  A    between atoms: _560  and  _561
REMARK  210  A    between atoms: _563  and  _565
REMARK  211  A    between atoms: _565  and  _566
REMARK  212  A    between atoms: _565  and  _568
REMARK  213  A    between atoms: _568  and  _569
REMARK  214  A    between atoms: _569  and  _570
REMARK  215  A    between atoms: _570  and  _571
REMARK  216  A    between atoms: _580  and  _582
REMARK  217  A    between atoms: _582  and  _583
REMARK  218  A    between atoms: _582  and  _585
REMARK  219  A    between atoms: _585  and  _586
REMARK  220  A    between atoms: _591  and  _592
REMARK  221  A    between atoms: _594  and  _596
REMARK  222  A    between atoms: _596  and  _597
REMARK  223  A    between atoms: _596  and  _599
REMARK  224  A    between atoms: _599  and  _600
REMARK  225  A    between atoms: _600  and  _601
REMARK  226  A    between atoms: _604  and  _606
REMARK  227  A    between atoms: _606  and  _607
REMARK  228  A    between atoms: _606  and  _609
REMARK  229  A    between atoms: _609  and  _610
REMARK  230  A    between atoms: _610  and  _611
REMARK  231  A    between atoms: _611  and  _612
REMARK                            x       y       z     vdW  Elec       q    Type
REMARK                         _______ _______ _______ _____ _____    ______ ____
ROOT
ATOM      1  O   HOH     1      28.242  -3.027  14.058  0.00  0.00    +0.000 OA
ENDROOT
TORSDOF 0
REMARK  Name = ../refined-set-2016/4zb6/4zb6_pocket.pdb
REMARK  231 active torsions:
REMARK  status: ('A' for Active; 'I' for Inactive)
REMARK    1  A    between atoms: _1  and  _3
REMARK    2  A    between atoms: _3  and  _4
REMARK    3  A    between atoms: _3  and  _6
REMARK    4  A    between atoms: _6  and  _7
REMARK    5  A    between atoms: _10  and  _12
REMARK    6  A    between atoms: _12  and  _13
REMARK    7  A    between atoms: _12  and  _15
REMARK    8  A    between atoms: _15  and  _16
REMARK    9  A    between atoms: _21  and  _23
REMARK   10  A    between atoms: _23  and  _24
REMARK   11  A    between atoms: _23  and  _26
REMARK   12  A    between atoms: _26  and  _27
REMARK   13  A    between atoms: _29  and  _31
REMARK   14  A    between atoms: _31  and  _32
REMARK   15  A    between atoms: _35  and  _36
REMARK   16  A    between atoms: _41  and  _43
REMARK   17  A    between atoms: _43  and  _44
REMARK   18  A    between atoms: _43  and  _46
REMARK   19  A    between atoms: _46  and  _47
REMARK   20  A    between atoms: _52  and  _54
REMARK   21  A    between atoms: _54  and  _55
REMARK   22  A    between atoms: _57  and  _59
REMARK   23  A    between atoms: _59  and  _60
REMARK   24  A    between atoms: _59  and  _62
REMARK   25  A    between atoms: _62  and  _63
REMARK   26  A    between atoms: _73  and  _75
REMARK   27  A    between atoms: _75  and  _76
REMARK   28  A    between atoms: _75  and  _78
REMARK   29  A    between atoms: _78  and  _79
REMARK   30  A    between atoms: _79  and  _80
REMARK   31  A    between atoms: _80  and  _81
REMARK   32  A    between atoms: _81  and  _82
REMARK   33  A    between atoms: _86  and  _88
REMARK   34  A    between atoms: _88  and  _89
REMARK   35  A    between atoms: _88  and  _91
REMARK   36  A    between atoms: _94  and  _96
REMARK   37  A    between atoms: _96  and  _97
REMARK   38  A    between atoms: _96  and  _99
REMARK   39  A    between atoms: _99  and  _100
REMARK   40  A    between atoms: _103  and  _105
REMARK   41  A    between atoms: _105  and  _106
REMARK   42  A    between atoms: _105  and  _108
REMARK   43  A    between atoms: _108  and  _109
REMARK   44  A    between atoms: _112  and  _114
REMARK   45  A    between atoms: _114  and  _115
REMARK   46  A    between atoms: _114  and  _117
REMARK   47  A    between atoms: _117  and  _118
REMARK   48  A    between atoms: _118  and  _119
REMARK   49  A    between atoms: _121  and  _123
REMARK   50  A    between atoms: _123  and  _124
REMARK   51  A    between atoms: _126  and  _128
REMARK   52  A    between atoms: _128  and  _129
REMARK   53  A    between atoms: _128  and  _131
REMARK   54  A    between atoms: _131  and  _132
REMARK   55  A    between atoms: _137  and  _139
REMARK   56  A    between atoms: _139  and  _140
REMARK   57  A    between atoms: _139  and  _142
REMARK   58  A    between atoms: _142  and  _143
REMARK   59  A    between atoms: _143  and  _144
REMARK   60  A    between atoms: _144  and  _145
REMARK   61  A    between atoms: _145  and  _146
REMARK   62  A    between atoms: _150  and  _152
REMARK   63  A    between atoms: _152  and  _153
REMARK   64  A    between atoms: _152  and  _155
REMARK   65  A    between atoms: _155  and  _156
REMARK   66  A    between atoms: _161  and  _162
REMARK   67  A    between atoms: _164  and  _166
REMARK   68  A    between atoms: _166  and  _167
REMARK   69  A    between atoms: _166  and  _169
REMARK   70  A    between atoms: _169  and  _170
REMARK   71  A    between atoms: _175  and  _177
REMARK   72  A    between atoms: _177  and  _178
REMARK   73  A    between atoms: _177  and  _180
REMARK   74  A    between atoms: _180  and  _181
REMARK   75  A    between atoms: _186  and  _188
REMARK   76  A    between atoms: _188  and  _189
REMARK   77  A    between atoms: _191  and  _193
REMARK   78  A    between atoms: _193  and  _194
REMARK   79  A    between atoms: _193  and  _196
REMARK   80  A    between atoms: _196  and  _197
REMARK   81  A    between atoms: _197  and  _198
REMARK   82  A    between atoms: _198  and  _199
REMARK   83  A    between atoms: _208  and  _210
REMARK   84  A    between atoms: _210  and  _211
REMARK   85  A    between atoms: _210  and  _213
REMARK   86  A    between atoms: _217  and  _218
REMARK   87  A    between atoms: _223  and  _225
REMARK   88  A    between atoms: _225  and  _226
REMARK   89  A    between atoms: _229  and  _231
REMARK   90  A    between atoms: _231  and  _232
REMARK   91  A    between atoms: _231  and  _234
REMARK   92  A    between atoms: _234  and  _235
REMARK   93  A    between atoms: _245  and  _247
REMARK   94  A    between atoms: _247  and  _248
REMARK   95  A    between atoms: _247  and  _250
REMARK   96  A    between atoms: _250  and  _251
REMARK   97  A    between atoms: _251  and  _252
REMARK   98  A    between atoms: _255  and  _257
REMARK   99  A    between atoms: _257  and  _258
REMARK  100  A    between atoms: _257  and  _260
REMARK  101  A    between atoms: _260  and  _261
REMARK  102  A    between atoms: _263  and  _265
REMARK  103  A    between atoms: _265  and  _266
REMARK  104  A    between atoms: _265  and  _268
REMARK  105  A    between atoms: _268  and  _269
REMARK  106  A    between atoms: _274  and  _276
REMARK  107  A    between atoms: _276  and  _277
REMARK  108  A    between atoms: _280  and  _282
REMARK  109  A    between atoms: _282  and  _283
REMARK  110  A    between atoms: _282  and  _285
REMARK  111  A    between atoms: _288  and  _290
REMARK  112  A    between atoms: _290  and  _291
REMARK  113  A    between atoms: _290  and  _293
REMARK  114  A    between atoms: _293  and  _294
REMARK  115  A    between atoms: _297  and  _299
REMARK  116  A    between atoms: _299  and  _300
REMARK  117  A    between atoms: _299  and  _302
REMARK  118  A    between atoms: _302  and  _303
REMARK  119  A    between atoms: _303  and  _304
REMARK  120  A    between atoms: _309  and  _311
REMARK  121  A    between atoms: _311  and  _312
REMARK  122  A    between atoms: _315  and  _317
REMARK  123  A    between atoms: _317  and  _318
REMARK  124  A    between atoms: _317  and  _320
REMARK  125  A    between atoms: _320  and  _321
REMARK  126  A    between atoms: _323  and  _325
REMARK  127  A    between atoms: _325  and  _326
REMARK  128  A    between atoms: _328  and  _330
REMARK  129  A    between atoms: _330  and  _331
REMARK  130  A    between atoms: _330  and  _333
REMARK  131  A    between atoms: _333  and  _334
REMARK  132  A    between atoms: _334  and  _335
REMARK  133  A    between atoms: _340  and  _342
REMARK  134  A    between atoms: _342  and  _343
REMARK  135  A    between atoms: _346  and  _347
REMARK  136  A    between atoms: _352  and  _354
REMARK  137  A    between atoms: _354  and  _355
REMARK  138  A    between atoms: _354  and  _357
REMARK  139  A    between atoms: _357  and  _358
REMARK  140  A    between atoms: _363  and  _364
REMARK  141  A    between atoms: _366  and  _368
REMARK  142  A    between atoms: _368  and  _369
REMARK  143  A    between atoms: _368  and  _371
REMARK  144  A    between atoms: _371  and  _372
REMARK  145  A    between atoms: _377  and  _378
REMARK  146  A    between atoms: _380  and  _382
REMARK  147  A    between atoms: _382  and  _383
REMARK  148  A    between atoms: _385  and  _387
REMARK  149  A    between atoms: _387  and  _388
REMARK  150  A    between atoms: _387  and  _390
REMARK  151  A    between atoms: _390  and  _391
REMARK  152  A    between atoms: _391  and  _392
REMARK  153  A    between atoms: _397  and  _399
REMARK  154  A    between atoms: _399  and  _400
REMARK  155  A    between atoms: _403  and  _405
REMARK  156  A    between atoms: _405  and  _406
REMARK  157  A    between atoms: _409  and  _411
REMARK  158  A    between atoms: _411  and  _412
REMARK  159  A    between atoms: _411  and  _414
REMARK  160  A    between atoms: _414  and  _415
REMARK  161  A    between atoms: _425  and  _427
REMARK  162  A    between atoms: _427  and  _428
REMARK  163  A    between atoms: _427  and  _430
REMARK  164  A    between atoms: _430  and  _431
REMARK  165  A    between atoms: _437  and  _439
REMARK  166  A    between atoms: _439  and  _440
REMARK  167  A    between atoms: _439  and  _442
REMARK  168  A    between atoms: _442  and  _443
REMARK  169  A    between atoms: _448  and  _449
REMARK  170  A    between atoms: _451  and  _453
REMARK  171  A    between atoms: _453  and  _454
REMARK  172  A    between atoms: _453  and  _456
REMARK  173  A    between atoms: _456  and  _457
REMARK  174  A    between atoms: _460  and  _462
REMARK  175  A    between atoms: _462  and  _463
REMARK  176  A    between atoms: _462  and  _465
REMARK  177  A    between atoms: _465  and  _466
REMARK  178  A    between atoms: _476  and  _478
REMARK  179  A    between atoms: _478  and  _479
REMARK  180  A    between atoms: _478  and  _481
REMARK  181  A    between atoms: _481  and  _482
REMARK  182  A    between atoms: _485  and  _487
REMARK  183  A    between atoms: _487  and  _488
REMARK  184  A    between atoms: _487  and  _490
REMARK  185  A    between atoms: _490  and  _491
REMARK  186  A    between atoms: _496  and  _497
REMARK  187  A    between atoms: _499  and  _501
REMARK  188  A    between atoms: _501  and  _502
REMARK  189  A    between atoms: _501  and  _504
REMARK  190  A    between atoms: _504  and  _505
REMARK  191  A    between atoms: _511  and  _513
REMARK  192  A    between atoms: _513  and  _514
REMARK  193  A    between atoms: _517  and  _519
REMARK  194  A    between atoms: _519  and  _520
REMARK  195  A    between atoms: _519  and  _522
REMARK  196  A    between atoms: _522  and  _523
REMARK  197  A    between atoms: _525  and  _527
REMARK  198  A    between atoms: _527  and  _528
REMARK  199  A    between atoms: _530  and  _532
REMARK  200  A    between atoms: _532  and  _533
REMARK  201  A    between atoms: _532  and  _535
REMARK  202  A    between atoms: _535  and  _536
REMARK  203  A    between atoms: _536  and  _537
REMARK  204  A    between atoms: _543  and  _544
REMARK  205  A    between atoms: _549  and  _551
REMARK  206  A    between atoms: _551  and  _552
REMARK  207  A    between atoms: _551  and  _554
REMARK  208  A    between atoms: _554  and  _555
REMARK  209  A    between atoms: _560  and  _561
REMARK  210  A    between atoms: _563  and  _565
REMARK  211  A    between atoms: _565  and  _566
REMARK  212  A    between atoms: _565  and  _568
REMARK  213  A    between atoms: _568  and  _569
REMARK  214  A    between atoms: _569  and  _570
REMARK  215  A    between atoms: _570  and  _571
REMARK  216  A    between atoms: _580  and  _582
REMARK  217  A    between atoms: _582  and  _583
REMARK  218  A    between atoms: _582  and  _585
REMARK  219  A    between atoms: _585  and  _586
REMARK  220  A    between atoms: _591  and  _592
REMARK  221  A    between atoms: _594  and  _596
REMARK  222  A    between atoms: _596  and  _597
REMARK  223  A    between atoms: _596  and  _599
REMARK  224  A    between atoms: _599  and  _600
REMARK  225  A    between atoms: _600  and  _601
REMARK  226  A    between atoms: _604  and  _606
REMARK  227  A    between atoms: _606  and  _607
REMARK  228  A    between atoms: _606  and  _609
REMARK  229  A    between atoms: _609  and  _610
REMARK  230  A    between atoms: _610  and  _611
REMARK  231  A    between atoms: _611  and  _612
REMARK                            x       y       z     vdW  Elec       q    Type
REMARK                         _______ _______ _______ _____ _____    ______ ____
ROOT
ATOM      1  O   HOH     1      29.274 -10.459   7.059  0.00  0.00    +0.000 OA
ENDROOT
TORSDOF 0
REMARK  Name = ../refined-set-2016/4zb6/4zb6_pocket.pdb
REMARK  231 active torsions:
REMARK  status: ('A' for Active; 'I' for Inactive)
REMARK    1  A    between atoms: _1  and  _3
REMARK    2  A    between atoms: _3  and  _4
REMARK    3  A    between atoms: _3  and  _6
REMARK    4  A    between atoms: _6  and  _7
REMARK    5  A    between atoms: _10  and  _12
REMARK    6  A    between atoms: _12  and  _13
REMARK    7  A    between atoms: _12  and  _15
REMARK    8  A    between atoms: _15  and  _16
REMARK    9  A    between atoms: _21  and  _23
REMARK   10  A    between atoms: _23  and  _24
REMARK   11  A    between atoms: _23  and  _26
REMARK   12  A    between atoms: _26  and  _27
REMARK   13  A    between atoms: _29  and  _31
REMARK   14  A    between atoms: _31  and  _32
REMARK   15  A    between atoms: _35  and  _36
REMARK   16  A    between atoms: _41  and  _43
REMARK   17  A    between atoms: _43  and  _44
REMARK   18  A    between atoms: _43  and  _46
REMARK   19  A    between atoms: _46  and  _47
REMARK   20  A    between atoms: _52  and  _54
REMARK   21  A    between atoms: _54  and  _55
REMARK   22  A    between atoms: _57  and  _59
REMARK   23  A    between atoms: _59  and  _60
REMARK   24  A    between atoms: _59  and  _62
REMARK   25  A    between atoms: _62  and  _63
REMARK   26  A    between atoms: _73  and  _75
REMARK   27  A    between atoms: _75  and  _76
REMARK   28  A    between atoms: _75  and  _78
REMARK   29  A    between atoms: _78  and  _79
REMARK   30  A    between atoms: _79  and  _80
REMARK   31  A    between atoms: _80  and  _81
REMARK   32  A    between atoms: _81  and  _82
REMARK   33  A    between atoms: _86  and  _88
REMARK   34  A    between atoms: _88  and  _89
REMARK   35  A    between atoms: _88  and  _91
REMARK   36  A    between atoms: _94  and  _96
REMARK   37  A    between atoms: _96  and  _97
REMARK   38  A    between atoms: _96  and  _99
REMARK   39  A    between atoms: _99  and  _100
REMARK   40  A    between atoms: _103  and  _105
REMARK   41  A    between atoms: _105  and  _106
REMARK   42  A    between atoms: _105  and  _108
REMARK   43  A    between atoms: _108  and  _109
REMARK   44  A    between atoms: _112  and  _114
REMARK   45  A    between atoms: _114  and  _115
REMARK   46  A    between atoms: _114  and  _117
REMARK   47  A    between atoms: _117  and  _118
REMARK   48  A    between atoms: _118  and  _119
REMARK   49  A    between atoms: _121  and  _123
REMARK   50  A    between atoms: _123  and  _124
REMARK   51  A    between atoms: _126  and  _128
REMARK   52  A    between atoms: _128  and  _129
REMARK   53  A    between atoms: _128  and  _131
REMARK   54  A    between atoms: _131  and  _132
REMARK   55  A    between atoms: _137  and  _139
REMARK   56  A    between atoms: _139  and  _140
REMARK   57  A    between atoms: _139  and  _142
REMARK   58  A    between atoms: _142  and  _143
REMARK   59  A    between atoms: _143  and  _144
REMARK   60  A    between atoms: _144  and  _145
REMARK   61  A    between atoms: _145  and  _146
REMARK   62  A    between atoms: _150  and  _152
REMARK   63  A    between atoms: _152  and  _153
REMARK   64  A    between atoms: _152  and  _155
REMARK   65  A    between atoms: _155  and  _156
REMARK   66  A    between atoms: _161  and  _162
REMARK   67  A    between atoms: _164  and  _166
REMARK   68  A    between atoms: _166  and  _167
REMARK   69  A    between atoms: _166  and  _169
REMARK   70  A    between atoms: _169  and  _170
REMARK   71  A    between atoms: _175  and  _177
REMARK   72  A    between atoms: _177  and  _178
REMARK   73  A    between atoms: _177  and  _180
REMARK   74  A    between atoms: _180  and  _181
REMARK   75  A    between atoms: _186  and  _188
REMARK   76  A    between atoms: _188  and  _189
REMARK   77  A    between atoms: _191  and  _193
REMARK   78  A    between atoms: _193  and  _194
REMARK   79  A    between atoms: _193  and  _196
REMARK   80  A    between atoms: _196  and  _197
REMARK   81  A    between atoms: _197  and  _198
REMARK   82  A    between atoms: _198  and  _199
REMARK   83  A    between atoms: _208  and  _210
REMARK   84  A    between atoms: _210  and  _211
REMARK   85  A    between atoms: _210  and  _213
REMARK   86  A    between atoms: _217  and  _218
REMARK   87  A    between atoms: _223  and  _225
REMARK   88  A    between atoms: _225  and  _226
REMARK   89  A    between atoms: _229  and  _231
REMARK   90  A    between atoms: _231  and  _232
REMARK   91  A    between atoms: _231  and  _234
REMARK   92  A    between atoms: _234  and  _235
REMARK   93  A    between atoms: _245  and  _247
REMARK   94  A    between atoms: _247  and  _248
REMARK   95  A    between atoms: _247  and  _250
REMARK   96  A    between atoms: _250  and  _251
REMARK   97  A    between atoms: _251  and  _252
REMARK   98  A    between atoms: _255  and  _257
REMARK   99  A    between atoms: _257  and  _258
REMARK  100  A    between atoms: _257  and  _260
REMARK  101  A    between atoms: _260  and  _261
REMARK  102  A    between atoms: _263  and  _265
REMARK  103  A    between atoms: _265  and  _266
REMARK  104  A    between atoms: _265  and  _268
REMARK  105  A    between atoms: _268  and  _269
REMARK  106  A    between atoms: _274  and  _276
REMARK  107  A    between atoms: _276  and  _277
REMARK  108  A    between atoms: _280  and  _282
REMARK  109  A    between atoms: _282  and  _283
REMARK  110  A    between atoms: _282  and  _285
REMARK  111  A    between atoms: _288  and  _290
REMARK  112  A    between atoms: _290  and  _291
REMARK  113  A    between atoms: _290  and  _293
REMARK  114  A    between atoms: _293  and  _294
REMARK  115  A    between atoms: _297  and  _299
REMARK  116  A    between atoms: _299  and  _300
REMARK  117  A    between atoms: _299  and  _302
REMARK  118  A    between atoms: _302  and  _303
REMARK  119  A    between atoms: _303  and  _304
REMARK  120  A    between atoms: _309  and  _311
REMARK  121  A    between atoms: _311  and  _312
REMARK  122  A    between atoms: _315  and  _317
REMARK  123  A    between atoms: _317  and  _318
REMARK  124  A    between atoms: _317  and  _320
REMARK  125  A    between atoms: _320  and  _321
REMARK  126  A    between atoms: _323  and  _325
REMARK  127  A    between atoms: _325  and  _326
REMARK  128  A    between atoms: _328  and  _330
REMARK  129  A    between atoms: _330  and  _331
REMARK  130  A    between atoms: _330  and  _333
REMARK  131  A    between atoms: _333  and  _334
REMARK  132  A    between atoms: _334  and  _335
REMARK  133  A    between atoms: _340  and  _342
REMARK  134  A    between atoms: _342  and  _343
REMARK  135  A    between atoms: _346  and  _347
REMARK  136  A    between atoms: _352  and  _354
REMARK  137  A    between atoms: _354  and  _355
REMARK  138  A    between atoms: _354  and  _357
REMARK  139  A    between atoms: _357  and  _358
REMARK  140  A    between atoms: _363  and  _364
REMARK  141  A    between atoms: _366  and  _368
REMARK  142  A    between atoms: _368  and  _369
REMARK  143  A    between atoms: _368  and  _371
REMARK  144  A    between atoms: _371  and  _372
REMARK  145  A    between atoms: _377  and  _378
REMARK  146  A    between atoms: _380  and  _382
REMARK  147  A    between atoms: _382  and  _383
REMARK  148  A    between atoms: _385  and  _387
REMARK  149  A    between atoms: _387  and  _388
REMARK  150  A    between atoms: _387  and  _390
REMARK  151  A    between atoms: _390  and  _391
REMARK  152  A    between atoms: _391  and  _392
REMARK  153  A    between atoms: _397  and  _399
REMARK  154  A    between atoms: _399  and  _400
REMARK  155  A    between atoms: _403  and  _405
REMARK  156  A    between atoms: _405  and  _406
REMARK  157  A    between atoms: _409  and  _411
REMARK  158  A    between atoms: _411  and  _412
REMARK  159  A    between atoms: _411  and  _414
REMARK  160  A    between atoms: _414  and  _415
REMARK  161  A    between atoms: _425  and  _427
REMARK  162  A    between atoms: _427  and  _428
REMARK  163  A    between atoms: _427  and  _430
REMARK  164  A    between atoms: _430  and  _431
REMARK  165  A    between atoms: _437  and  _439
REMARK  166  A    between atoms: _439  and  _440
REMARK  167  A    between atoms: _439  and  _442
REMARK  168  A    between atoms: _442  and  _443
REMARK  169  A    between atoms: _448  and  _449
REMARK  170  A    between atoms: _451  and  _453
REMARK  171  A    between atoms: _453  and  _454
REMARK  172  A    between atoms: _453  and  _456
REMARK  173  A    between atoms: _456  and  _457
REMARK  174  A    between atoms: _460  and  _462
REMARK  175  A    between atoms: _462  and  _463
REMARK  176  A    between atoms: _462  and  _465
REMARK  177  A    between atoms: _465  and  _466
REMARK  178  A    between atoms: _476  and  _478
REMARK  179  A    between atoms: _478  and  _479
REMARK  180  A    between atoms: _478  and  _481
REMARK  181  A    between atoms: _481  and  _482
REMARK  182  A    between atoms: _485  and  _487
REMARK  183  A    between atoms: _487  and  _488
REMARK  184  A    between atoms: _487  and  _490
REMARK  185  A    between atoms: _490  and  _491
REMARK  186  A    between atoms: _496  and  _497
REMARK  187  A    between atoms: _499  and  _501
REMARK  188  A    between atoms: _501  and  _502
REMARK  189  A    between atoms: _501  and  _504
REMARK  190  A    between atoms: _504  and  _505
REMARK  191  A    between atoms: _511  and  _513
REMARK  192  A    between atoms: _513  and  _514
REMARK  193  A    between atoms: _517  and  _519
REMARK  194  A    between atoms: _519  and  _520
REMARK  195  A    between atoms: _519  and  _522
REMARK  196  A    between atoms: _522  and  _523
REMARK  197  A    between atoms: _525  and  _527
REMARK  198  A    between atoms: _527  and  _528
REMARK  199  A    between atoms: _530  and  _532
REMARK  200  A    between atoms: _532  and  _533
REMARK  201  A    between atoms: _532  and  _535
REMARK  202  A    between atoms: _535  and  _536
REMARK  203  A    between atoms: _536  and  _537
REMARK  204  A    between atoms: _543  and  _544
REMARK  205  A    between atoms: _549  and  _551
REMARK  206  A    between atoms: _551  and  _552
REMARK  207  A    between atoms: _551  and  _554
REMARK  208  A    between atoms: _554  and  _555
REMARK  209  A    between atoms: _560  and  _561
REMARK  210  A    between atoms: _563  and  _565
REMARK  211  A    between atoms: _565  and  _566
REMARK  212  A    between atoms: _565  and  _568
REMARK  213  A    between atoms: _568  and  _569
REMARK  214  A    between atoms: _569  and  _570
REMARK  215  A    between atoms: _570  and  _571
REMARK  216  A    between atoms: _580  and  _582
REMARK  217  A    between atoms: _582  and  _583
REMARK  218  A    between atoms: _582  and  _585
REMARK  219  A    between atoms: _585  and  _586
REMARK  220  A    between atoms: _591  and  _592
REMARK  221  A    between atoms: _594  and  _596
REMARK  222  A    between atoms: _596  and  _597
REMARK  223  A    between atoms: _596  and  _599
REMARK  224  A    between atoms: _599  and  _600
REMARK  225  A    between atoms: _600  and  _601
REMARK  226  A    between atoms: _604  and  _606
REMARK  227  A    between atoms: _606  and  _607
REMARK  228  A    between atoms: _606  and  _609
REMARK  229  A    between atoms: _609  and  _610
REMARK  230  A    between atoms: _610  and  _611
REMARK  231  A    between atoms: _611  and  _612
REMARK                            x       y       z     vdW  Elec       q    Type
REMARK                         _______ _______ _______ _____ _____    ______ ____
ROOT
ATOM      1  O   HOH     1      31.451   5.767  10.547  0.00  0.00    +0.000 OA
ENDROOT
TORSDOF 0
REMARK  Name = ../refined-set-2016/4zb6/4zb6_pocket.pdb
REMARK  231 active torsions:
REMARK  status: ('A' for Active; 'I' for Inactive)
REMARK    1  A    between atoms: _1  and  _3
REMARK    2  A    between atoms: _3  and  _4
REMARK    3  A    between atoms: _3  and  _6
REMARK    4  A    between atoms: _6  and  _7
REMARK    5  A    between atoms: _10  and  _12
REMARK    6  A    between atoms: _12  and  _13
REMARK    7  A    between atoms: _12  and  _15
REMARK    8  A    between atoms: _15  and  _16
REMARK    9  A    between atoms: _21  and  _23
REMARK   10  A    between atoms: _23  and  _24
REMARK   11  A    between atoms: _23  and  _26
REMARK   12  A    between atoms: _26  and  _27
REMARK   13  A    between atoms: _29  and  _31
REMARK   14  A    between atoms: _31  and  _32
REMARK   15  A    between atoms: _35  and  _36
REMARK   16  A    between atoms: _41  and  _43
REMARK   17  A    between atoms: _43  and  _44
REMARK   18  A    between atoms: _43  and  _46
REMARK   19  A    between atoms: _46  and  _47
REMARK   20  A    between atoms: _52  and  _54
REMARK   21  A    between atoms: _54  and  _55
REMARK   22  A    between atoms: _57  and  _59
REMARK   23  A    between atoms: _59  and  _60
REMARK   24  A    between atoms: _59  and  _62
REMARK   25  A    between atoms: _62  and  _63
REMARK   26  A    between atoms: _73  and  _75
REMARK   27  A    between atoms: _75  and  _76
REMARK   28  A    between atoms: _75  and  _78
REMARK   29  A    between atoms: _78  and  _79
REMARK   30  A    between atoms: _79  and  _80
REMARK   31  A    between atoms: _80  and  _81
REMARK   32  A    between atoms: _81  and  _82
REMARK   33  A    between atoms: _86  and  _88
REMARK   34  A    between atoms: _88  and  _89
REMARK   35  A    between atoms: _88  and  _91
REMARK   36  A    between atoms: _94  and  _96
REMARK   37  A    between atoms: _96  and  _97
REMARK   38  A    between atoms: _96  and  _99
REMARK   39  A    between atoms: _99  and  _100
REMARK   40  A    between atoms: _103  and  _105
REMARK   41  A    between atoms: _105  and  _106
REMARK   42  A    between atoms: _105  and  _108
REMARK   43  A    between atoms: _108  and  _109
REMARK   44  A    between atoms: _112  and  _114
REMARK   45  A    between atoms: _114  and  _115
REMARK   46  A    between atoms: _114  and  _117
REMARK   47  A    between atoms: _117  and  _118
REMARK   48  A    between atoms: _118  and  _119
REMARK   49  A    between atoms: _121  and  _123
REMARK   50  A    between atoms: _123  and  _124
REMARK   51  A    between atoms: _126  and  _128
REMARK   52  A    between atoms: _128  and  _129
REMARK   53  A    between atoms: _128  and  _131
REMARK   54  A    between atoms: _131  and  _132
REMARK   55  A    between atoms: _137  and  _139
REMARK   56  A    between atoms: _139  and  _140
REMARK   57  A    between atoms: _139  and  _142
REMARK   58  A    between atoms: _142  and  _143
REMARK   59  A    between atoms: _143  and  _144
REMARK   60  A    between atoms: _144  and  _145
REMARK   61  A    between atoms: _145  and  _146
REMARK   62  A    between atoms: _150  and  _152
REMARK   63  A    between atoms: _152  and  _153
REMARK   64  A    between atoms: _152  and  _155
REMARK   65  A    between atoms: _155  and  _156
REMARK   66  A    between atoms: _161  and  _162
REMARK   67  A    between atoms: _164  and  _166
REMARK   68  A    between atoms: _166  and  _167
REMARK   69  A    between atoms: _166  and  _169
REMARK   70  A    between atoms: _169  and  _170
REMARK   71  A    between atoms: _175  and  _177
REMARK   72  A    between atoms: _177  and  _178
REMARK   73  A    between atoms: _177  and  _180
REMARK   74  A    between atoms: _180  and  _181
REMARK   75  A    between atoms: _186  and  _188
REMARK   76  A    between atoms: _188  and  _189
REMARK   77  A    between atoms: _191  and  _193
REMARK   78  A    between atoms: _193  and  _194
REMARK   79  A    between atoms: _193  and  _196
REMARK   80  A    between atoms: _196  and  _197
REMARK   81  A    between atoms: _197  and  _198
REMARK   82  A    between atoms: _198  and  _199
REMARK   83  A    between atoms: _208  and  _210
REMARK   84  A    between atoms: _210  and  _211
REMARK   85  A    between atoms: _210  and  _213
REMARK   86  A    between atoms: _217  and  _218
REMARK   87  A    between atoms: _223  and  _225
REMARK   88  A    between atoms: _225  and  _226
REMARK   89  A    between atoms: _229  and  _231
REMARK   90  A    between atoms: _231  and  _232
REMARK   91  A    between atoms: _231  and  _234
REMARK   92  A    between atoms: _234  and  _235
REMARK   93  A    between atoms: _245  and  _247
REMARK   94  A    between atoms: _247  and  _248
REMARK   95  A    between atoms: _247  and  _250
REMARK   96  A    between atoms: _250  and  _251
REMARK   97  A    between atoms: _251  and  _252
REMARK   98  A    between atoms: _255  and  _257
REMARK   99  A    between atoms: _257  and  _258
REMARK  100  A    between atoms: _257  and  _260
REMARK  101  A    between atoms: _260  and  _261
REMARK  102  A    between atoms: _263  and  _265
REMARK  103  A    between atoms: _265  and  _266
REMARK  104  A    between atoms: _265  and  _268
REMARK  105  A    between atoms: _268  and  _269
REMARK  106  A    between atoms: _274  and  _276
REMARK  107  A    between atoms: _276  and  _277
REMARK  108  A    between atoms: _280  and  _282
REMARK  109  A    between atoms: _282  and  _283
REMARK  110  A    between atoms: _282  and  _285
REMARK  111  A    between atoms: _288  and  _290
REMARK  112  A    between atoms: _290  and  _291
REMARK  113  A    between atoms: _290  and  _293
REMARK  114  A    between atoms: _293  and  _294
REMARK  115  A    between atoms: _297  and  _299
REMARK  116  A    between atoms: _299  and  _300
REMARK  117  A    between atoms: _299  and  _302
REMARK  118  A    between atoms: _302  and  _303
REMARK  119  A    between atoms: _303  and  _304
REMARK  120  A    between atoms: _309  and  _311
REMARK  121  A    between atoms: _311  and  _312
REMARK  122  A    between atoms: _315  and  _317
REMARK  123  A    between atoms: _317  and  _318
REMARK  124  A    between atoms: _317  and  _320
REMARK  125  A    between atoms: _320  and  _321
REMARK  126  A    between atoms: _323  and  _325
REMARK  127  A    between atoms: _325  and  _326
REMARK  128  A    between atoms: _328  and  _330
REMARK  129  A    between atoms: _330  and  _331
REMARK  130  A    between atoms: _330  and  _333
REMARK  131  A    between atoms: _333  and  _334
REMARK  132  A    between atoms: _334  and  _335
REMARK  133  A    between atoms: _340  and  _342
REMARK  134  A    between atoms: _342  and  _343
REMARK  135  A    between atoms: _346  and  _347
REMARK  136  A    between atoms: _352  and  _354
REMARK  137  A    between atoms: _354  and  _355
REMARK  138  A    between atoms: _354  and  _357
REMARK  139  A    between atoms: _357  and  _358
REMARK  140  A    between atoms: _363  and  _364
REMARK  141  A    between atoms: _366  and  _368
REMARK  142  A    between atoms: _368  and  _369
REMARK  143  A    between atoms: _368  and  _371
REMARK  144  A    between atoms: _371  and  _372
REMARK  145  A    between atoms: _377  and  _378
REMARK  146  A    between atoms: _380  and  _382
REMARK  147  A    between atoms: _382  and  _383
REMARK  148  A    between atoms: _385  and  _387
REMARK  149  A    between atoms: _387  and  _388
REMARK  150  A    between atoms: _387  and  _390
REMARK  151  A    between atoms: _390  and  _391
REMARK  152  A    between atoms: _391  and  _392
REMARK  153  A    between atoms: _397  and  _399
REMARK  154  A    between atoms: _399  and  _400
REMARK  155  A    between atoms: _403  and  _405
REMARK  156  A    between atoms: _405  and  _406
REMARK  157  A    between atoms: _409  and  _411
REMARK  158  A    between atoms: _411  and  _412
REMARK  159  A    between atoms: _411  and  _414
REMARK  160  A    between atoms: _414  and  _415
REMARK  161  A    between atoms: _425  and  _427
REMARK  162  A    between atoms: _427  and  _428
REMARK  163  A    between atoms: _427  and  _430
REMARK  164  A    between atoms: _430  and  _431
REMARK  165  A    between atoms: _437  and  _439
REMARK  166  A    between atoms: _439  and  _440
REMARK  167  A    between atoms: _439  and  _442
REMARK  168  A    between atoms: _442  and  _443
REMARK  169  A    between atoms: _448  and  _449
REMARK  170  A    between atoms: _451  and  _453
REMARK  171  A    between atoms: _453  and  _454
REMARK  172  A    between atoms: _453  and  _456
REMARK  173  A    between atoms: _456  and  _457
REMARK  174  A    between atoms: _460  and  _462
REMARK  175  A    between atoms: _462  and  _463
REMARK  176  A    between atoms: _462  and  _465
REMARK  177  A    between atoms: _465  and  _466
REMARK  178  A    between atoms: _476  and  _478
REMARK  179  A    between atoms: _478  and  _479
REMARK  180  A    between atoms: _478  and  _481
REMARK  181  A    between atoms: _481  and  _482
REMARK  182  A    between atoms: _485  and  _487
REMARK  183  A    between atoms: _487  and  _488
REMARK  184  A    between atoms: _487  and  _490
REMARK  185  A    between atoms: _490  and  _491
REMARK  186  A    between atoms: _496  and  _497
REMARK  187  A    between atoms: _499  and  _501
REMARK  188  A    between atoms: _501  and  _502
REMARK  189  A    between atoms: _501  and  _504
REMARK  190  A    between atoms: _504  and  _505
REMARK  191  A    between atoms: _511  and  _513
REMARK  192  A    between atoms: _513  and  _514
REMARK  193  A    between atoms: _517  and  _519
REMARK  194  A    between atoms: _519  and  _520
REMARK  195  A    between atoms: _519  and  _522
REMARK  196  A    between atoms: _522  and  _523
REMARK  197  A    between atoms: _525  and  _527
REMARK  198  A    between atoms: _527  and  _528
REMARK  199  A    between atoms: _530  and  _532
REMARK  200  A    between atoms: _532  and  _533
REMARK  201  A    between atoms: _532  and  _535
REMARK  202  A    between atoms: _535  and  _536
REMARK  203  A    between atoms: _536  and  _537
REMARK  204  A    between atoms: _543  and  _544
REMARK  205  A    between atoms: _549  and  _551
REMARK  206  A    between atoms: _551  and  _552
REMARK  207  A    between atoms: _551  and  _554
REMARK  208  A    between atoms: _554  and  _555
REMARK  209  A    between atoms: _560  and  _561
REMARK  210  A    between atoms: _563  and  _565
REMARK  211  A    between atoms: _565  and  _566
REMARK  212  A    between atoms: _565  and  _568
REMARK  213  A    between atoms: _568  and  _569
REMARK  214  A    between atoms: _569  and  _570
REMARK  215  A    between atoms: _570  and  _571
REMARK  216  A    between atoms: _580  and  _582
REMARK  217  A    between atoms: _582  and  _583
REMARK  218  A    between atoms: _582  and  _585
REMARK  219  A    between atoms: _585  and  _586
REMARK  220  A    between atoms: _591  and  _592
REMARK  221  A    between atoms: _594  and  _596
REMARK  222  A    between atoms: _596  and  _597
REMARK  223  A    between atoms: _596  and  _599
REMARK  224  A    between atoms: _599  and  _600
REMARK  225  A    between atoms: _600  and  _601
REMARK  226  A    between atoms: _604  and  _606
REMARK  227  A    between atoms: _606  and  _607
REMARK  228  A    between atoms: _606  and  _609
REMARK  229  A    between atoms: _609  and  _610
REMARK  230  A    between atoms: _610  and  _611
REMARK  231  A    between atoms: _611  and  _612
REMARK                            x       y       z     vdW  Elec       q    Type
REMARK                         _______ _______ _______ _____ _____    ______ ____
ROOT
ATOM      1  O   HOH     1      26.793  15.031   7.165  0.00  0.00    +0.000 OA
ENDROOT
TORSDOF 0
REMARK  Name = ../refined-set-2016/4zb6/4zb6_pocket.pdb
REMARK  231 active torsions:
REMARK  status: ('A' for Active; 'I' for Inactive)
REMARK    1  A    between atoms: _1  and  _3
REMARK    2  A    between atoms: _3  and  _4
REMARK    3  A    between atoms: _3  and  _6
REMARK    4  A    between atoms: _6  and  _7
REMARK    5  A    between atoms: _10  and  _12
REMARK    6  A    between atoms: _12  and  _13
REMARK    7  A    between atoms: _12  and  _15
REMARK    8  A    between atoms: _15  and  _16
REMARK    9  A    between atoms: _21  and  _23
REMARK   10  A    between atoms: _23  and  _24
REMARK   11  A    between atoms: _23  and  _26
REMARK   12  A    between atoms: _26  and  _27
REMARK   13  A    between atoms: _29  and  _31
REMARK   14  A    between atoms: _31  and  _32
REMARK   15  A    between atoms: _35  and  _36
REMARK   16  A    between atoms: _41  and  _43
REMARK   17  A    between atoms: _43  and  _44
REMARK   18  A    between atoms: _43  and  _46
REMARK   19  A    between atoms: _46  and  _47
REMARK   20  A    between atoms: _52  and  _54
REMARK   21  A    between atoms: _54  and  _55
REMARK   22  A    between atoms: _57  and  _59
REMARK   23  A    between atoms: _59  and  _60
REMARK   24  A    between atoms: _59  and  _62
REMARK   25  A    between atoms: _62  and  _63
REMARK   26  A    between atoms: _73  and  _75
REMARK   27  A    between atoms: _75  and  _76
REMARK   28  A    between atoms: _75  and  _78
REMARK   29  A    between atoms: _78  and  _79
REMARK   30  A    between atoms: _79  and  _80
REMARK   31  A    between atoms: _80  and  _81
REMARK   32  A    between atoms: _81  and  _82
REMARK   33  A    between atoms: _86  and  _88
REMARK   34  A    between atoms: _88  and  _89
REMARK   35  A    between atoms: _88  and  _91
REMARK   36  A    between atoms: _94  and  _96
REMARK   37  A    between atoms: _96  and  _97
REMARK   38  A    between atoms: _96  and  _99
REMARK   39  A    between atoms: _99  and  _100
REMARK   40  A    between atoms: _103  and  _105
REMARK   41  A    between atoms: _105  and  _106
REMARK   42  A    between atoms: _105  and  _108
REMARK   43  A    between atoms: _108  and  _109
REMARK   44  A    between atoms: _112  and  _114
REMARK   45  A    between atoms: _114  and  _115
REMARK   46  A    between atoms: _114  and  _117
REMARK   47  A    between atoms: _117  and  _118
REMARK   48  A    between atoms: _118  and  _119
REMARK   49  A    between atoms: _121  and  _123
REMARK   50  A    between atoms: _123  and  _124
REMARK   51  A    between atoms: _126  and  _128
REMARK   52  A    between atoms: _128  and  _129
REMARK   53  A    between atoms: _128  and  _131
REMARK   54  A    between atoms: _131  and  _132
REMARK   55  A    between atoms: _137  and  _139
REMARK   56  A    between atoms: _139  and  _140
REMARK   57  A    between atoms: _139  and  _142
REMARK   58  A    between atoms: _142  and  _143
REMARK   59  A    between atoms: _143  and  _144
REMARK   60  A    between atoms: _144  and  _145
REMARK   61  A    between atoms: _145  and  _146
REMARK   62  A    between atoms: _150  and  _152
REMARK   63  A    between atoms: _152  and  _153
REMARK   64  A    between atoms: _152  and  _155
REMARK   65  A    between atoms: _155  and  _156
REMARK   66  A    between atoms: _161  and  _162
REMARK   67  A    between atoms: _164  and  _166
REMARK   68  A    between atoms: _166  and  _167
REMARK   69  A    between atoms: _166  and  _169
REMARK   70  A    between atoms: _169  and  _170
REMARK   71  A    between atoms: _175  and  _177
REMARK   72  A    between atoms: _177  and  _178
REMARK   73  A    between atoms: _177  and  _180
REMARK   74  A    between atoms: _180  and  _181
REMARK   75  A    between atoms: _186  and  _188
REMARK   76  A    between atoms: _188  and  _189
REMARK   77  A    between atoms: _191  and  _193
REMARK   78  A    between atoms: _193  and  _194
REMARK   79  A    between atoms: _193  and  _196
REMARK   80  A    between atoms: _196  and  _197
REMARK   81  A    between atoms: _197  and  _198
REMARK   82  A    between atoms: _198  and  _199
REMARK   83  A    between atoms: _208  and  _210
REMARK   84  A    between atoms: _210  and  _211
REMARK   85  A    between atoms: _210  and  _213
REMARK   86  A    between atoms: _217  and  _218
REMARK   87  A    between atoms: _223  and  _225
REMARK   88  A    between atoms: _225  and  _226
REMARK   89  A    between atoms: _229  and  _231
REMARK   90  A    between atoms: _231  and  _232
REMARK   91  A    between atoms: _231  and  _234
REMARK   92  A    between atoms: _234  and  _235
REMARK   93  A    between atoms: _245  and  _247
REMARK   94  A    between atoms: _247  and  _248
REMARK   95  A    between atoms: _247  and  _250
REMARK   96  A    between atoms: _250  and  _251
REMARK   97  A    between atoms: _251  and  _252
REMARK   98  A    between atoms: _255  and  _257
REMARK   99  A    between atoms: _257  and  _258
REMARK  100  A    between atoms: _257  and  _260
REMARK  101  A    between atoms: _260  and  _261
REMARK  102  A    between atoms: _263  and  _265
REMARK  103  A    between atoms: _265  and  _266
REMARK  104  A    between atoms: _265  and  _268
REMARK  105  A    between atoms: _268  and  _269
REMARK  106  A    between atoms: _274  and  _276
REMARK  107  A    between atoms: _276  and  _277
REMARK  108  A    between atoms: _280  and  _282
REMARK  109  A    between atoms: _282  and  _283
REMARK  110  A    between atoms: _282  and  _285
REMARK  111  A    between atoms: _288  and  _290
REMARK  112  A    between atoms: _290  and  _291
REMARK  113  A    between atoms: _290  and  _293
REMARK  114  A    between atoms: _293  and  _294
REMARK  115  A    between atoms: _297  and  _299
REMARK  116  A    between atoms: _299  and  _300
REMARK  117  A    between atoms: _299  and  _302
REMARK  118  A    between atoms: _302  and  _303
REMARK  119  A    between atoms: _303  and  _304
REMARK  120  A    between atoms: _309  and  _311
REMARK  121  A    between atoms: _311  and  _312
REMARK  122  A    between atoms: _315  and  _317
REMARK  123  A    between atoms: _317  and  _318
REMARK  124  A    between atoms: _317  and  _320
REMARK  125  A    between atoms: _320  and  _321
REMARK  126  A    between atoms: _323  and  _325
REMARK  127  A    between atoms: _325  and  _326
REMARK  128  A    between atoms: _328  and  _330
REMARK  129  A    between atoms: _330  and  _331
REMARK  130  A    between atoms: _330  and  _333
REMARK  131  A    between atoms: _333  and  _334
REMARK  132  A    between atoms: _334  and  _335
REMARK  133  A    between atoms: _340  and  _342
REMARK  134  A    between atoms: _342  and  _343
REMARK  135  A    between atoms: _346  and  _347
REMARK  136  A    between atoms: _352  and  _354
REMARK  137  A    between atoms: _354  and  _355
REMARK  138  A    between atoms: _354  and  _357
REMARK  139  A    between atoms: _357  and  _358
REMARK  140  A    between atoms: _363  and  _364
REMARK  141  A    between atoms: _366  and  _368
REMARK  142  A    between atoms: _368  and  _369
REMARK  143  A    between atoms: _368  and  _371
REMARK  144  A    between atoms: _371  and  _372
REMARK  145  A    between atoms: _377  and  _378
REMARK  146  A    between atoms: _380  and  _382
REMARK  147  A    between atoms: _382  and  _383
REMARK  148  A    between atoms: _385  and  _387
REMARK  149  A    between atoms: _387  and  _388
REMARK  150  A    between atoms: _387  and  _390
REMARK  151  A    between atoms: _390  and  _391
REMARK  152  A    between atoms: _391  and  _392
REMARK  153  A    between atoms: _397  and  _399
REMARK  154  A    between atoms: _399  and  _400
REMARK  155  A    between atoms: _403  and  _405
REMARK  156  A    between atoms: _405  and  _406
REMARK  157  A    between atoms: _409  and  _411
REMARK  158  A    between atoms: _411  and  _412
REMARK  159  A    between atoms: _411  and  _414
REMARK  160  A    between atoms: _414  and  _415
REMARK  161  A    between atoms: _425  and  _427
REMARK  162  A    between atoms: _427  and  _428
REMARK  163  A    between atoms: _427  and  _430
REMARK  164  A    between atoms: _430  and  _431
REMARK  165  A    between atoms: _437  and  _439
REMARK  166  A    between atoms: _439  and  _440
REMARK  167  A    between atoms: _439  and  _442
REMARK  168  A    between atoms: _442  and  _443
REMARK  169  A    between atoms: _448  and  _449
REMARK  170  A    between atoms: _451  and  _453
REMARK  171  A    between atoms: _453  and  _454
REMARK  172  A    between atoms: _453  and  _456
REMARK  173  A    between atoms: _456  and  _457
REMARK  174  A    between atoms: _460  and  _462
REMARK  175  A    between atoms: _462  and  _463
REMARK  176  A    between atoms: _462  and  _465
REMARK  177  A    between atoms: _465  and  _466
REMARK  178  A    between atoms: _476  and  _478
REMARK  179  A    between atoms: _478  and  _479
REMARK  180  A    between atoms: _478  and  _481
REMARK  181  A    between atoms: _481  and  _482
REMARK  182  A    between atoms: _485  and  _487
REMARK  183  A    between atoms: _487  and  _488
REMARK  184  A    between atoms: _487  and  _490
REMARK  185  A    between atoms: _490  and  _491
REMARK  186  A    between atoms: _496  and  _497
REMARK  187  A    between atoms: _499  and  _501
REMARK  188  A    between atoms: _501  and  _502
REMARK  189  A    between atoms: _501  and  _504
REMARK  190  A    between atoms: _504  and  _505
REMARK  191  A    between atoms: _511  and  _513
REMARK  192  A    between atoms: _513  and  _514
REMARK  193  A    between atoms: _517  and  _519
REMARK  194  A    between atoms: _519  and  _520
REMARK  195  A    between atoms: _519  and  _522
REMARK  196  A    between atoms: _522  and  _523
REMARK  197  A    between atoms: _525  and  _527
REMARK  198  A    between atoms: _527  and  _528
REMARK  199  A    between atoms: _530  and  _532
REMARK  200  A    between atoms: _532  and  _533
REMARK  201  A    between atoms: _532  and  _535
REMARK  202  A    between atoms: _535  and  _536
REMARK  203  A    between atoms: _536  and  _537
REMARK  204  A    between atoms: _543  and  _544
REMARK  205  A    between atoms: _549  and  _551
REMARK  206  A    between atoms: _551  and  _552
REMARK  207  A    between atoms: _551  and  _554
REMARK  208  A    between atoms: _554  and  _555
REMARK  209  A    between atoms: _560  and  _561
REMARK  210  A    between atoms: _563  and  _565
REMARK  211  A    between atoms: _565  and  _566
REMARK  212  A    between atoms: _565  and  _568
REMARK  213  A    between atoms: _568  and  _569
REMARK  214  A    between atoms: _569  and  _570
REMARK  215  A    between atoms: _570  and  _571
REMARK  216  A    between atoms: _580  and  _582
REMARK  217  A    between atoms: _582  and  _583
REMARK  218  A    between atoms: _582  and  _585
REMARK  219  A    between atoms: _585  and  _586
REMARK  220  A    between atoms: _591  and  _592
REMARK  221  A    between atoms: _594  and  _596
REMARK  222  A    between atoms: _596  and  _597
REMARK  223  A    between atoms: _596  and  _599
REMARK  224  A    between atoms: _599  and  _600
REMARK  225  A    between atoms: _600  and  _601
REMARK  226  A    between atoms: _604  and  _606
REMARK  227  A    between atoms: _606  and  _607
REMARK  228  A    between atoms: _606  and  _609
REMARK  229  A    between atoms: _609  and  _610
REMARK  230  A    between atoms: _610  and  _611
REMARK  231  A    between atoms: _611  and  _612
REMARK                            x       y       z     vdW  Elec       q    Type
REMARK                         _______ _______ _______ _____ _____    ______ ____
ROOT
ATOM      1  O   HOH     1      21.483   4.928   0.585  0.00  0.00    +0.000 OA
ENDROOT
TORSDOF 0
REMARK  Name = ../refined-set-2016/4zb6/4zb6_pocket.pdb
REMARK  231 active torsions:
REMARK  status: ('A' for Active; 'I' for Inactive)
REMARK    1  A    between atoms: _1  and  _3
REMARK    2  A    between atoms: _3  and  _4
REMARK    3  A    between atoms: _3  and  _6
REMARK    4  A    between atoms: _6  and  _7
REMARK    5  A    between atoms: _10  and  _12
REMARK    6  A    between atoms: _12  and  _13
REMARK    7  A    between atoms: _12  and  _15
REMARK    8  A    between atoms: _15  and  _16
REMARK    9  A    between atoms: _21  and  _23
REMARK   10  A    between atoms: _23  and  _24
REMARK   11  A    between atoms: _23  and  _26
REMARK   12  A    between atoms: _26  and  _27
REMARK   13  A    between atoms: _29  and  _31
REMARK   14  A    between atoms: _31  and  _32
REMARK   15  A    between atoms: _35  and  _36
REMARK   16  A    between atoms: _41  and  _43
REMARK   17  A    between atoms: _43  and  _44
REMARK   18  A    between atoms: _43  and  _46
REMARK   19  A    between atoms: _46  and  _47
REMARK   20  A    between atoms: _52  and  _54
REMARK   21  A    between atoms: _54  and  _55
REMARK   22  A    between atoms: _57  and  _59
REMARK   23  A    between atoms: _59  and  _60
REMARK   24  A    between atoms: _59  and  _62
REMARK   25  A    between atoms: _62  and  _63
REMARK   26  A    between atoms: _73  and  _75
REMARK   27  A    between atoms: _75  and  _76
REMARK   28  A    between atoms: _75  and  _78
REMARK   29  A    between atoms: _78  and  _79
REMARK   30  A    between atoms: _79  and  _80
REMARK   31  A    between atoms: _80  and  _81
REMARK   32  A    between atoms: _81  and  _82
REMARK   33  A    between atoms: _86  and  _88
REMARK   34  A    between atoms: _88  and  _89
REMARK   35  A    between atoms: _88  and  _91
REMARK   36  A    between atoms: _94  and  _96
REMARK   37  A    between atoms: _96  and  _97
REMARK   38  A    between atoms: _96  and  _99
REMARK   39  A    between atoms: _99  and  _100
REMARK   40  A    between atoms: _103  and  _105
REMARK   41  A    between atoms: _105  and  _106
REMARK   42  A    between atoms: _105  and  _108
REMARK   43  A    between atoms: _108  and  _109
REMARK   44  A    between atoms: _112  and  _114
REMARK   45  A    between atoms: _114  and  _115
REMARK   46  A    between atoms: _114  and  _117
REMARK   47  A    between atoms: _117  and  _118
REMARK   48  A    between atoms: _118  and  _119
REMARK   49  A    between atoms: _121  and  _123
REMARK   50  A    between atoms: _123  and  _124
REMARK   51  A    between atoms: _126  and  _128
REMARK   52  A    between atoms: _128  and  _129
REMARK   53  A    between atoms: _128  and  _131
REMARK   54  A    between atoms: _131  and  _132
REMARK   55  A    between atoms: _137  and  _139
REMARK   56  A    between atoms: _139  and  _140
REMARK   57  A    between atoms: _139  and  _142
REMARK   58  A    between atoms: _142  and  _143
REMARK   59  A    between atoms: _143  and  _144
REMARK   60  A    between atoms: _144  and  _145
REMARK   61  A    between atoms: _145  and  _146
REMARK   62  A    between atoms: _150  and  _152
REMARK   63  A    between atoms: _152  and  _153
REMARK   64  A    between atoms: _152  and  _155
REMARK   65  A    between atoms: _155  and  _156
REMARK   66  A    between atoms: _161  and  _162
REMARK   67  A    between atoms: _164  and  _166
REMARK   68  A    between atoms: _166  and  _167
REMARK   69  A    between atoms: _166  and  _169
REMARK   70  A    between atoms: _169  and  _170
REMARK   71  A    between atoms: _175  and  _177
REMARK   72  A    between atoms: _177  and  _178
REMARK   73  A    between atoms: _177  and  _180
REMARK   74  A    between atoms: _180  and  _181
REMARK   75  A    between atoms: _186  and  _188
REMARK   76  A    between atoms: _188  and  _189
REMARK   77  A    between atoms: _191  and  _193
REMARK   78  A    between atoms: _193  and  _194
REMARK   79  A    between atoms: _193  and  _196
REMARK   80  A    between atoms: _196  and  _197
REMARK   81  A    between atoms: _197  and  _198
REMARK   82  A    between atoms: _198  and  _199
REMARK   83  A    between atoms: _208  and  _210
REMARK   84  A    between atoms: _210  and  _211
REMARK   85  A    between atoms: _210  and  _213
REMARK   86  A    between atoms: _217  and  _218
REMARK   87  A    between atoms: _223  and  _225
REMARK   88  A    between atoms: _225  and  _226
REMARK   89  A    between atoms: _229  and  _231
REMARK   90  A    between atoms: _231  and  _232
REMARK   91  A    between atoms: _231  and  _234
REMARK   92  A    between atoms: _234  and  _235
REMARK   93  A    between atoms: _245  and  _247
REMARK   94  A    between atoms: _247  and  _248
REMARK   95  A    between atoms: _247  and  _250
REMARK   96  A    between atoms: _250  and  _251
REMARK   97  A    between atoms: _251  and  _252
REMARK   98  A    between atoms: _255  and  _257
REMARK   99  A    between atoms: _257  and  _258
REMARK  100  A    between atoms: _257  and  _260
REMARK  101  A    between atoms: _260  and  _261
REMARK  102  A    between atoms: _263  and  _265
REMARK  103  A    between atoms: _265  and  _266
REMARK  104  A    between atoms: _265  and  _268
REMARK  105  A    between atoms: _268  and  _269
REMARK  106  A    between atoms: _274  and  _276
REMARK  107  A    between atoms: _276  and  _277
REMARK  108  A    between atoms: _280  and  _282
REMARK  109  A    between atoms: _282  and  _283
REMARK  110  A    between atoms: _282  and  _285
REMARK  111  A    between atoms: _288  and  _290
REMARK  112  A    between atoms: _290  and  _291
REMARK  113  A    between atoms: _290  and  _293
REMARK  114  A    between atoms: _293  and  _294
REMARK  115  A    between atoms: _297  and  _299
REMARK  116  A    between atoms: _299  and  _300
REMARK  117  A    between atoms: _299  and  _302
REMARK  118  A    between atoms: _302  and  _303
REMARK  119  A    between atoms: _303  and  _304
REMARK  120  A    between atoms: _309  and  _311
REMARK  121  A    between atoms: _311  and  _312
REMARK  122  A    between atoms: _315  and  _317
REMARK  123  A    between atoms: _317  and  _318
REMARK  124  A    between atoms: _317  and  _320
REMARK  125  A    between atoms: _320  and  _321
REMARK  126  A    between atoms: _323  and  _325
REMARK  127  A    between atoms: _325  and  _326
REMARK  128  A    between atoms: _328  and  _330
REMARK  129  A    between atoms: _330  and  _331
REMARK  130  A    between atoms: _330  and  _333
REMARK  131  A    between atoms: _333  and  _334
REMARK  132  A    between atoms: _334  and  _335
REMARK  133  A    between atoms: _340  and  _342
REMARK  134  A    between atoms: _342  and  _343
REMARK  135  A    between atoms: _346  and  _347
REMARK  136  A    between atoms: _352  and  _354
REMARK  137  A    between atoms: _354  and  _355
REMARK  138  A    between atoms: _354  and  _357
REMARK  139  A    between atoms: _357  and  _358
REMARK  140  A    between atoms: _363  and  _364
REMARK  141  A    between atoms: _366  and  _368
REMARK  142  A    between atoms: _368  and  _369
REMARK  143  A    between atoms: _368  and  _371
REMARK  144  A    between atoms: _371  and  _372
REMARK  145  A    between atoms: _377  and  _378
REMARK  146  A    between atoms: _380  and  _382
REMARK  147  A    between atoms: _382  and  _383
REMARK  148  A    between atoms: _385  and  _387
REMARK  149  A    between atoms: _387  and  _388
REMARK  150  A    between atoms: _387  and  _390
REMARK  151  A    between atoms: _390  and  _391
REMARK  152  A    between atoms: _391  and  _392
REMARK  153  A    between atoms: _397  and  _399
REMARK  154  A    between atoms: _399  and  _400
REMARK  155  A    between atoms: _403  and  _405
REMARK  156  A    between atoms: _405  and  _406
REMARK  157  A    between atoms: _409  and  _411
REMARK  158  A    between atoms: _411  and  _412
REMARK  159  A    between atoms: _411  and  _414
REMARK  160  A    between atoms: _414  and  _415
REMARK  161  A    between atoms: _425  and  _427
REMARK  162  A    between atoms: _427  and  _428
REMARK  163  A    between atoms: _427  and  _430
REMARK  164  A    between atoms: _430  and  _431
REMARK  165  A    between atoms: _437  and  _439
REMARK  166  A    between atoms: _439  and  _440
REMARK  167  A    between atoms: _439  and  _442
REMARK  168  A    between atoms: _442  and  _443
REMARK  169  A    between atoms: _448  and  _449
REMARK  170  A    between atoms: _451  and  _453
REMARK  171  A    between atoms: _453  and  _454
REMARK  172  A    between atoms: _453  and  _456
REMARK  173  A    between atoms: _456  and  _457
REMARK  174  A    between atoms: _460  and  _462
REMARK  175  A    between atoms: _462  and  _463
REMARK  176  A    between atoms: _462  and  _465
REMARK  177  A    between atoms: _465  and  _466
REMARK  178  A    between atoms: _476  and  _478
REMARK  179  A    between atoms: _478  and  _479
REMARK  180  A    between atoms: _478  and  _481
REMARK  181  A    between atoms: _481  and  _482
REMARK  182  A    between atoms: _485  and  _487
REMARK  183  A    between atoms: _487  and  _488
REMARK  184  A    between atoms: _487  and  _490
REMARK  185  A    between atoms: _490  and  _491
REMARK  186  A    between atoms: _496  and  _497
REMARK  187  A    between atoms: _499  and  _501
REMARK  188  A    between atoms: _501  and  _502
REMARK  189  A    between atoms: _501  and  _504
REMARK  190  A    between atoms: _504  and  _505
REMARK  191  A    between atoms: _511  and  _513
REMARK  192  A    between atoms: _513  and  _514
REMARK  193  A    between atoms: _517  and  _519
REMARK  194  A    between atoms: _519  and  _520
REMARK  195  A    between atoms: _519  and  _522
REMARK  196  A    between atoms: _522  and  _523
REMARK  197  A    between atoms: _525  and  _527
REMARK  198  A    between atoms: _527  and  _528
REMARK  199  A    between atoms: _530  and  _532
REMARK  200  A    between atoms: _532  and  _533
REMARK  201  A    between atoms: _532  and  _535
REMARK  202  A    between atoms: _535  and  _536
REMARK  203  A    between atoms: _536  and  _537
REMARK  204  A    between atoms: _543  and  _544
REMARK  205  A    between atoms: _549  and  _551
REMARK  206  A    between atoms: _551  and  _552
REMARK  207  A    between atoms: _551  and  _554
REMARK  208  A    between atoms: _554  and  _555
REMARK  209  A    between atoms: _560  and  _561
REMARK  210  A    between atoms: _563  and  _565
REMARK  211  A    between atoms: _565  and  _566
REMARK  212  A    between atoms: _565  and  _568
REMARK  213  A    between atoms: _568  and  _569
REMARK  214  A    between atoms: _569  and  _570
REMARK  215  A    between atoms: _570  and  _571
REMARK  216  A    between atoms: _580  and  _582
REMARK  217  A    between atoms: _582  and  _583
REMARK  218  A    between atoms: _582  and  _585
REMARK  219  A    between atoms: _585  and  _586
REMARK  220  A    between atoms: _591  and  _592
REMARK  221  A    between atoms: _594  and  _596
REMARK  222  A    between atoms: _596  and  _597
REMARK  223  A    between atoms: _596  and  _599
REMARK  224  A    between atoms: _599  and  _600
REMARK  225  A    between atoms: _600  and  _601
REMARK  226  A    between atoms: _604  and  _606
REMARK  227  A    between atoms: _606  and  _607
REMARK  228  A    between atoms: _606  and  _609
REMARK  229  A    between atoms: _609  and  _610
REMARK  230  A    between atoms: _610  and  _611
REMARK  231  A    between atoms: _611  and  _612
REMARK                            x       y       z     vdW  Elec       q    Type
REMARK                         _______ _______ _______ _____ _____    ______ ____
ROOT
ATOM      1  O   HOH     1      19.507  -1.365  10.028  0.00  0.00    +0.000 OA
ENDROOT
TORSDOF 0
REMARK  Name = ../refined-set-2016/4zb6/4zb6_pocket.pdb
REMARK  231 active torsions:
REMARK  status: ('A' for Active; 'I' for Inactive)
REMARK    1  A    between atoms: _1  and  _3
REMARK    2  A    between atoms: _3  and  _4
REMARK    3  A    between atoms: _3  and  _6
REMARK    4  A    between atoms: _6  and  _7
REMARK    5  A    between atoms: _10  and  _12
REMARK    6  A    between atoms: _12  and  _13
REMARK    7  A    between atoms: _12  and  _15
REMARK    8  A    between atoms: _15  and  _16
REMARK    9  A    between atoms: _21  and  _23
REMARK   10  A    between atoms: _23  and  _24
REMARK   11  A    between atoms: _23  and  _26
REMARK   12  A    between atoms: _26  and  _27
REMARK   13  A    between atoms: _29  and  _31
REMARK   14  A    between atoms: _31  and  _32
REMARK   15  A    between atoms: _35  and  _36
REMARK   16  A    between atoms: _41  and  _43
REMARK   17  A    between atoms: _43  and  _44
REMARK   18  A    between atoms: _43  and  _46
REMARK   19  A    between atoms: _46  and  _47
REMARK   20  A    between atoms: _52  and  _54
REMARK   21  A    between atoms: _54  and  _55
REMARK   22  A    between atoms: _57  and  _59
REMARK   23  A    between atoms: _59  and  _60
REMARK   24  A    between atoms: _59  and  _62
REMARK   25  A    between atoms: _62  and  _63
REMARK   26  A    between atoms: _73  and  _75
REMARK   27  A    between atoms: _75  and  _76
REMARK   28  A    between atoms: _75  and  _78
REMARK   29  A    between atoms: _78  and  _79
REMARK   30  A    between atoms: _79  and  _80
REMARK   31  A    between atoms: _80  and  _81
REMARK   32  A    between atoms: _81  and  _82
REMARK   33  A    between atoms: _86  and  _88
REMARK   34  A    between atoms: _88  and  _89
REMARK   35  A    between atoms: _88  and  _91
REMARK   36  A    between atoms: _94  and  _96
REMARK   37  A    between atoms: _96  and  _97
REMARK   38  A    between atoms: _96  and  _99
REMARK   39  A    between atoms: _99  and  _100
REMARK   40  A    between atoms: _103  and  _105
REMARK   41  A    between atoms: _105  and  _106
REMARK   42  A    between atoms: _105  and  _108
REMARK   43  A    between atoms: _108  and  _109
REMARK   44  A    between atoms: _112  and  _114
REMARK   45  A    between atoms: _114  and  _115
REMARK   46  A    between atoms: _114  and  _117
REMARK   47  A    between atoms: _117  and  _118
REMARK   48  A    between atoms: _118  and  _119
REMARK   49  A    between atoms: _121  and  _123
REMARK   50  A    between atoms: _123  and  _124
REMARK   51  A    between atoms: _126  and  _128
REMARK   52  A    between atoms: _128  and  _129
REMARK   53  A    between atoms: _128  and  _131
REMARK   54  A    between atoms: _131  and  _132
REMARK   55  A    between atoms: _137  and  _139
REMARK   56  A    between atoms: _139  and  _140
REMARK   57  A    between atoms: _139  and  _142
REMARK   58  A    between atoms: _142  and  _143
REMARK   59  A    between atoms: _143  and  _144
REMARK   60  A    between atoms: _144  and  _145
REMARK   61  A    between atoms: _145  and  _146
REMARK   62  A    between atoms: _150  and  _152
REMARK   63  A    between atoms: _152  and  _153
REMARK   64  A    between atoms: _152  and  _155
REMARK   65  A    between atoms: _155  and  _156
REMARK   66  A    between atoms: _161  and  _162
REMARK   67  A    between atoms: _164  and  _166
REMARK   68  A    between atoms: _166  and  _167
REMARK   69  A    between atoms: _166  and  _169
REMARK   70  A    between atoms: _169  and  _170
REMARK   71  A    between atoms: _175  and  _177
REMARK   72  A    between atoms: _177  and  _178
REMARK   73  A    between atoms: _177  and  _180
REMARK   74  A    between atoms: _180  and  _181
REMARK   75  A    between atoms: _186  and  _188
REMARK   76  A    between atoms: _188  and  _189
REMARK   77  A    between atoms: _191  and  _193
REMARK   78  A    between atoms: _193  and  _194
REMARK   79  A    between atoms: _193  and  _196
REMARK   80  A    between atoms: _196  and  _197
REMARK   81  A    between atoms: _197  and  _198
REMARK   82  A    between atoms: _198  and  _199
REMARK   83  A    between atoms: _208  and  _210
REMARK   84  A    between atoms: _210  and  _211
REMARK   85  A    between atoms: _210  and  _213
REMARK   86  A    between atoms: _217  and  _218
REMARK   87  A    between atoms: _223  and  _225
REMARK   88  A    between atoms: _225  and  _226
REMARK   89  A    between atoms: _229  and  _231
REMARK   90  A    between atoms: _231  and  _232
REMARK   91  A    between atoms: _231  and  _234
REMARK   92  A    between atoms: _234  and  _235
REMARK   93  A    between atoms: _245  and  _247
REMARK   94  A    between atoms: _247  and  _248
REMARK   95  A    between atoms: _247  and  _250
REMARK   96  A    between atoms: _250  and  _251
REMARK   97  A    between atoms: _251  and  _252
REMARK   98  A    between atoms: _255  and  _257
REMARK   99  A    between atoms: _257  and  _258
REMARK  100  A    between atoms: _257  and  _260
REMARK  101  A    between atoms: _260  and  _261
REMARK  102  A    between atoms: _263  and  _265
REMARK  103  A    between atoms: _265  and  _266
REMARK  104  A    between atoms: _265  and  _268
REMARK  105  A    between atoms: _268  and  _269
REMARK  106  A    between atoms: _274  and  _276
REMARK  107  A    between atoms: _276  and  _277
REMARK  108  A    between atoms: _280  and  _282
REMARK  109  A    between atoms: _282  and  _283
REMARK  110  A    between atoms: _282  and  _285
REMARK  111  A    between atoms: _288  and  _290
REMARK  112  A    between atoms: _290  and  _291
REMARK  113  A    between atoms: _290  and  _293
REMARK  114  A    between atoms: _293  and  _294
REMARK  115  A    between atoms: _297  and  _299
REMARK  116  A    between atoms: _299  and  _300
REMARK  117  A    between atoms: _299  and  _302
REMARK  118  A    between atoms: _302  and  _303
REMARK  119  A    between atoms: _303  and  _304
REMARK  120  A    between atoms: _309  and  _311
REMARK  121  A    between atoms: _311  and  _312
REMARK  122  A    between atoms: _315  and  _317
REMARK  123  A    between atoms: _317  and  _318
REMARK  124  A    between atoms: _317  and  _320
REMARK  125  A    between atoms: _320  and  _321
REMARK  126  A    between atoms: _323  and  _325
REMARK  127  A    between atoms: _325  and  _326
REMARK  128  A    between atoms: _328  and  _330
REMARK  129  A    between atoms: _330  and  _331
REMARK  130  A    between atoms: _330  and  _333
REMARK  131  A    between atoms: _333  and  _334
REMARK  132  A    between atoms: _334  and  _335
REMARK  133  A    between atoms: _340  and  _342
REMARK  134  A    between atoms: _342  and  _343
REMARK  135  A    between atoms: _346  and  _347
REMARK  136  A    between atoms: _352  and  _354
REMARK  137  A    between atoms: _354  and  _355
REMARK  138  A    between atoms: _354  and  _357
REMARK  139  A    between atoms: _357  and  _358
REMARK  140  A    between atoms: _363  and  _364
REMARK  141  A    between atoms: _366  and  _368
REMARK  142  A    between atoms: _368  and  _369
REMARK  143  A    between atoms: _368  and  _371
REMARK  144  A    between atoms: _371  and  _372
REMARK  145  A    between atoms: _377  and  _378
REMARK  146  A    between atoms: _380  and  _382
REMARK  147  A    between atoms: _382  and  _383
REMARK  148  A    between atoms: _385  and  _387
REMARK  149  A    between atoms: _387  and  _388
REMARK  150  A    between atoms: _387  and  _390
REMARK  151  A    between atoms: _390  and  _391
REMARK  152  A    between atoms: _391  and  _392
REMARK  153  A    between atoms: _397  and  _399
REMARK  154  A    between atoms: _399  and  _400
REMARK  155  A    between atoms: _403  and  _405
REMARK  156  A    between atoms: _405  and  _406
REMARK  157  A    between atoms: _409  and  _411
REMARK  158  A    between atoms: _411  and  _412
REMARK  159  A    between atoms: _411  and  _414
REMARK  160  A    between atoms: _414  and  _415
REMARK  161  A    between atoms: _425  and  _427
REMARK  162  A    between atoms: _427  and  _428
REMARK  163  A    between atoms: _427  and  _430
REMARK  164  A    between atoms: _430  and  _431
REMARK  165  A    between atoms: _437  and  _439
REMARK  166  A    between atoms: _439  and  _440
REMARK  167  A    between atoms: _439  and  _442
REMARK  168  A    between atoms: _442  and  _443
REMARK  169  A    between atoms: _448  and  _449
REMARK  170  A    between atoms: _451  and  _453
REMARK  171  A    between atoms: _453  and  _454
REMARK  172  A    between atoms: _453  and  _456
REMARK  173  A    between atoms: _456  and  _457
REMARK  174  A    between atoms: _460  and  _462
REMARK  175  A    between atoms: _462  and  _463
REMARK  176  A    between atoms: _462  and  _465
REMARK  177  A    between atoms: _465  and  _466
REMARK  178  A    between atoms: _476  and  _478
REMARK  179  A    between atoms: _478  and  _479
REMARK  180  A    between atoms: _478  and  _481
REMARK  181  A    between atoms: _481  and  _482
REMARK  182  A    between atoms: _485  and  _487
REMARK  183  A    between atoms: _487  and  _488
REMARK  184  A    between atoms: _487  and  _490
REMARK  185  A    between atoms: _490  and  _491
REMARK  186  A    between atoms: _496  and  _497
REMARK  187  A    between atoms: _499  and  _501
REMARK  188  A    between atoms: _501  and  _502
REMARK  189  A    between atoms: _501  and  _504
REMARK  190  A    between atoms: _504  and  _505
REMARK  191  A    between atoms: _511  and  _513
REMARK  192  A    between atoms: _513  and  _514
REMARK  193  A    between atoms: _517  and  _519
REMARK  194  A    between atoms: _519  and  _520
REMARK  195  A    between atoms: _519  and  _522
REMARK  196  A    between atoms: _522  and  _523
REMARK  197  A    between atoms: _525  and  _527
REMARK  198  A    between atoms: _527  and  _528
REMARK  199  A    between atoms: _530  and  _532
REMARK  200  A    between atoms: _532  and  _533
REMARK  201  A    between atoms: _532  and  _535
REMARK  202  A    between atoms: _535  and  _536
REMARK  203  A    between atoms: _536  and  _537
REMARK  204  A    between atoms: _543  and  _544
REMARK  205  A    between atoms: _549  and  _551
REMARK  206  A    between atoms: _551  and  _552
REMARK  207  A    between atoms: _551  and  _554
REMARK  208  A    between atoms: _554  and  _555
REMARK  209  A    between atoms: _560  and  _561
REMARK  210  A    between atoms: _563  and  _565
REMARK  211  A    between atoms: _565  and  _566
REMARK  212  A    between atoms: _565  and  _568
REMARK  213  A    between atoms: _568  and  _569
REMARK  214  A    between atoms: _569  and  _570
REMARK  215  A    between atoms: _570  and  _571
REMARK  216  A    between atoms: _580  and  _582
REMARK  217  A    between atoms: _582  and  _583
REMARK  218  A    between atoms: _582  and  _585
REMARK  219  A    between atoms: _585  and  _586
REMARK  220  A    between atoms: _591  and  _592
REMARK  221  A    between atoms: _594  and  _596
REMARK  222  A    between atoms: _596  and  _597
REMARK  223  A    between atoms: _596  and  _599
REMARK  224  A    between atoms: _599  and  _600
REMARK  225  A    between atoms: _600  and  _601
REMARK  226  A    between atoms: _604  and  _606
REMARK  227  A    between atoms: _606  and  _607
REMARK  228  A    between atoms: _606  and  _609
REMARK  229  A    between atoms: _609  and  _610
REMARK  230  A    between atoms: _610  and  _611
REMARK  231  A    between atoms: _611  and  _612
REMARK                            x       y       z     vdW  Elec       q    Type
REMARK                         _______ _______ _______ _____ _____    ______ ____
ROOT
ATOM      1  O   HOH     1      31.115   4.353  12.928  0.00  0.00    +0.000 OA
ENDROOT
TORSDOF 0
REMARK  Name = ../refined-set-2016/4zb6/4zb6_pocket.pdb
REMARK  231 active torsions:
REMARK  status: ('A' for Active; 'I' for Inactive)
REMARK    1  A    between atoms: _1  and  _3
REMARK    2  A    between atoms: _3  and  _4
REMARK    3  A    between atoms: _3  and  _6
REMARK    4  A    between atoms: _6  and  _7
REMARK    5  A    between atoms: _10  and  _12
REMARK    6  A    between atoms: _12  and  _13
REMARK    7  A    between atoms: _12  and  _15
REMARK    8  A    between atoms: _15  and  _16
REMARK    9  A    between atoms: _21  and  _23
REMARK   10  A    between atoms: _23  and  _24
REMARK   11  A    between atoms: _23  and  _26
REMARK   12  A    between atoms: _26  and  _27
REMARK   13  A    between atoms: _29  and  _31
REMARK   14  A    between atoms: _31  and  _32
REMARK   15  A    between atoms: _35  and  _36
REMARK   16  A    between atoms: _41  and  _43
REMARK   17  A    between atoms: _43  and  _44
REMARK   18  A    between atoms: _43  and  _46
REMARK   19  A    between atoms: _46  and  _47
REMARK   20  A    between atoms: _52  and  _54
REMARK   21  A    between atoms: _54  and  _55
REMARK   22  A    between atoms: _57  and  _59
REMARK   23  A    between atoms: _59  and  _60
REMARK   24  A    between atoms: _59  and  _62
REMARK   25  A    between atoms: _62  and  _63
REMARK   26  A    between atoms: _73  and  _75
REMARK   27  A    between atoms: _75  and  _76
REMARK   28  A    between atoms: _75  and  _78
REMARK   29  A    between atoms: _78  and  _79
REMARK   30  A    between atoms: _79  and  _80
REMARK   31  A    between atoms: _80  and  _81
REMARK   32  A    between atoms: _81  and  _82
REMARK   33  A    between atoms: _86  and  _88
REMARK   34  A    between atoms: _88  and  _89
REMARK   35  A    between atoms: _88  and  _91
REMARK   36  A    between atoms: _94  and  _96
REMARK   37  A    between atoms: _96  and  _97
REMARK   38  A    between atoms: _96  and  _99
REMARK   39  A    between atoms: _99  and  _100
REMARK   40  A    between atoms: _103  and  _105
REMARK   41  A    between atoms: _105  and  _106
REMARK   42  A    between atoms: _105  and  _108
REMARK   43  A    between atoms: _108  and  _109
REMARK   44  A    between atoms: _112  and  _114
REMARK   45  A    between atoms: _114  and  _115
REMARK   46  A    between atoms: _114  and  _117
REMARK   47  A    between atoms: _117  and  _118
REMARK   48  A    between atoms: _118  and  _119
REMARK   49  A    between atoms: _121  and  _123
REMARK   50  A    between atoms: _123  and  _124
REMARK   51  A    between atoms: _126  and  _128
REMARK   52  A    between atoms: _128  and  _129
REMARK   53  A    between atoms: _128  and  _131
REMARK   54  A    between atoms: _131  and  _132
REMARK   55  A    between atoms: _137  and  _139
REMARK   56  A    between atoms: _139  and  _140
REMARK   57  A    between atoms: _139  and  _142
REMARK   58  A    between atoms: _142  and  _143
REMARK   59  A    between atoms: _143  and  _144
REMARK   60  A    between atoms: _144  and  _145
REMARK   61  A    between atoms: _145  and  _146
REMARK   62  A    between atoms: _150  and  _152
REMARK   63  A    between atoms: _152  and  _153
REMARK   64  A    between atoms: _152  and  _155
REMARK   65  A    between atoms: _155  and  _156
REMARK   66  A    between atoms: _161  and  _162
REMARK   67  A    between atoms: _164  and  _166
REMARK   68  A    between atoms: _166  and  _167
REMARK   69  A    between atoms: _166  and  _169
REMARK   70  A    between atoms: _169  and  _170
REMARK   71  A    between atoms: _175  and  _177
REMARK   72  A    between atoms: _177  and  _178
REMARK   73  A    between atoms: _177  and  _180
REMARK   74  A    between atoms: _180  and  _181
REMARK   75  A    between atoms: _186  and  _188
REMARK   76  A    between atoms: _188  and  _189
REMARK   77  A    between atoms: _191  and  _193
REMARK   78  A    between atoms: _193  and  _194
REMARK   79  A    between atoms: _193  and  _196
REMARK   80  A    between atoms: _196  and  _197
REMARK   81  A    between atoms: _197  and  _198
REMARK   82  A    between atoms: _198  and  _199
REMARK   83  A    between atoms: _208  and  _210
REMARK   84  A    between atoms: _210  and  _211
REMARK   85  A    between atoms: _210  and  _213
REMARK   86  A    between atoms: _217  and  _218
REMARK   87  A    between atoms: _223  and  _225
REMARK   88  A    between atoms: _225  and  _226
REMARK   89  A    between atoms: _229  and  _231
REMARK   90  A    between atoms: _231  and  _232
REMARK   91  A    between atoms: _231  and  _234
REMARK   92  A    between atoms: _234  and  _235
REMARK   93  A    between atoms: _245  and  _247
REMARK   94  A    between atoms: _247  and  _248
REMARK   95  A    between atoms: _247  and  _250
REMARK   96  A    between atoms: _250  and  _251
REMARK   97  A    between atoms: _251  and  _252
REMARK   98  A    between atoms: _255  and  _257
REMARK   99  A    between atoms: _257  and  _258
REMARK  100  A    between atoms: _257  and  _260
REMARK  101  A    between atoms: _260  and  _261
REMARK  102  A    between atoms: _263  and  _265
REMARK  103  A    between atoms: _265  and  _266
REMARK  104  A    between atoms: _265  and  _268
REMARK  105  A    between atoms: _268  and  _269
REMARK  106  A    between atoms: _274  and  _276
REMARK  107  A    between atoms: _276  and  _277
REMARK  108  A    between atoms: _280  and  _282
REMARK  109  A    between atoms: _282  and  _283
REMARK  110  A    between atoms: _282  and  _285
REMARK  111  A    between atoms: _288  and  _290
REMARK  112  A    between atoms: _290  and  _291
REMARK  113  A    between atoms: _290  and  _293
REMARK  114  A    between atoms: _293  and  _294
REMARK  115  A    between atoms: _297  and  _299
REMARK  116  A    between atoms: _299  and  _300
REMARK  117  A    between atoms: _299  and  _302
REMARK  118  A    between atoms: _302  and  _303
REMARK  119  A    between atoms: _303  and  _304
REMARK  120  A    between atoms: _309  and  _311
REMARK  121  A    between atoms: _311  and  _312
REMARK  122  A    between atoms: _315  and  _317
REMARK  123  A    between atoms: _317  and  _318
REMARK  124  A    between atoms: _317  and  _320
REMARK  125  A    between atoms: _320  and  _321
REMARK  126  A    between atoms: _323  and  _325
REMARK  127  A    between atoms: _325  and  _326
REMARK  128  A    between atoms: _328  and  _330
REMARK  129  A    between atoms: _330  and  _331
REMARK  130  A    between atoms: _330  and  _333
REMARK  131  A    between atoms: _333  and  _334
REMARK  132  A    between atoms: _334  and  _335
REMARK  133  A    between atoms: _340  and  _342
REMARK  134  A    between atoms: _342  and  _343
REMARK  135  A    between atoms: _346  and  _347
REMARK  136  A    between atoms: _352  and  _354
REMARK  137  A    between atoms: _354  and  _355
REMARK  138  A    between atoms: _354  and  _357
REMARK  139  A    between atoms: _357  and  _358
REMARK  140  A    between atoms: _363  and  _364
REMARK  141  A    between atoms: _366  and  _368
REMARK  142  A    between atoms: _368  and  _369
REMARK  143  A    between atoms: _368  and  _371
REMARK  144  A    between atoms: _371  and  _372
REMARK  145  A    between atoms: _377  and  _378
REMARK  146  A    between atoms: _380  and  _382
REMARK  147  A    between atoms: _382  and  _383
REMARK  148  A    between atoms: _385  and  _387
REMARK  149  A    between atoms: _387  and  _388
REMARK  150  A    between atoms: _387  and  _390
REMARK  151  A    between atoms: _390  and  _391
REMARK  152  A    between atoms: _391  and  _392
REMARK  153  A    between atoms: _397  and  _399
REMARK  154  A    between atoms: _399  and  _400
REMARK  155  A    between atoms: _403  and  _405
REMARK  156  A    between atoms: _405  and  _406
REMARK  157  A    between atoms: _409  and  _411
REMARK  158  A    between atoms: _411  and  _412
REMARK  159  A    between atoms: _411  and  _414
REMARK  160  A    between atoms: _414  and  _415
REMARK  161  A    between atoms: _425  and  _427
REMARK  162  A    between atoms: _427  and  _428
REMARK  163  A    between atoms: _427  and  _430
REMARK  164  A    between atoms: _430  and  _431
REMARK  165  A    between atoms: _437  and  _439
REMARK  166  A    between atoms: _439  and  _440
REMARK  167  A    between atoms: _439  and  _442
REMARK  168  A    between atoms: _442  and  _443
REMARK  169  A    between atoms: _448  and  _449
REMARK  170  A    between atoms: _451  and  _453
REMARK  171  A    between atoms: _453  and  _454
REMARK  172  A    between atoms: _453  and  _456
REMARK  173  A    between atoms: _456  and  _457
REMARK  174  A    between atoms: _460  and  _462
REMARK  175  A    between atoms: _462  and  _463
REMARK  176  A    between atoms: _462  and  _465
REMARK  177  A    between atoms: _465  and  _466
REMARK  178  A    between atoms: _476  and  _478
REMARK  179  A    between atoms: _478  and  _479
REMARK  180  A    between atoms: _478  and  _481
REMARK  181  A    between atoms: _481  and  _482
REMARK  182  A    between atoms: _485  and  _487
REMARK  183  A    between atoms: _487  and  _488
REMARK  184  A    between atoms: _487  and  _490
REMARK  185  A    between atoms: _490  and  _491
REMARK  186  A    between atoms: _496  and  _497
REMARK  187  A    between atoms: _499  and  _501
REMARK  188  A    between atoms: _501  and  _502
REMARK  189  A    between atoms: _501  and  _504
REMARK  190  A    between atoms: _504  and  _505
REMARK  191  A    between atoms: _511  and  _513
REMARK  192  A    between atoms: _513  and  _514
REMARK  193  A    between atoms: _517  and  _519
REMARK  194  A    between atoms: _519  and  _520
REMARK  195  A    between atoms: _519  and  _522
REMARK  196  A    between atoms: _522  and  _523
REMARK  197  A    between atoms: _525  and  _527
REMARK  198  A    between atoms: _527  and  _528
REMARK  199  A    between atoms: _530  and  _532
REMARK  200  A    between atoms: _532  and  _533
REMARK  201  A    between atoms: _532  and  _535
REMARK  202  A    between atoms: _535  and  _536
REMARK  203  A    between atoms: _536  and  _537
REMARK  204  A    between atoms: _543  and  _544
REMARK  205  A    between atoms: _549  and  _551
REMARK  206  A    between atoms: _551  and  _552
REMARK  207  A    between atoms: _551  and  _554
REMARK  208  A    between atoms: _554  and  _555
REMARK  209  A    between atoms: _560  and  _561
REMARK  210  A    between atoms: _563  and  _565
REMARK  211  A    between atoms: _565  and  _566
REMARK  212  A    between atoms: _565  and  _568
REMARK  213  A    between atoms: _568  and  _569
REMARK  214  A    between atoms: _569  and  _570
REMARK  215  A    between atoms: _570  and  _571
REMARK  216  A    between atoms: _580  and  _582
REMARK  217  A    between atoms: _582  and  _583
REMARK  218  A    between atoms: _582  and  _585
REMARK  219  A    between atoms: _585  and  _586
REMARK  220  A    between atoms: _591  and  _592
REMARK  221  A    between atoms: _594  and  _596
REMARK  222  A    between atoms: _596  and  _597
REMARK  223  A    between atoms: _596  and  _599
REMARK  224  A    between atoms: _599  and  _600
REMARK  225  A    between atoms: _600  and  _601
REMARK  226  A    between atoms: _604  and  _606
REMARK  227  A    between atoms: _606  and  _607
REMARK  228  A    between atoms: _606  and  _609
REMARK  229  A    between atoms: _609  and  _610
REMARK  230  A    between atoms: _610  and  _611
REMARK  231  A    between atoms: _611  and  _612
REMARK                            x       y       z     vdW  Elec       q    Type
REMARK                         _______ _______ _______ _____ _____    ______ ____
ROOT
ATOM      1  O   HOH     1      23.052   9.663   6.571  0.00  0.00    +0.000 OA
ENDROOT
TORSDOF 0
REMARK  Name = ../refined-set-2016/4zb6/4zb6_pocket.pdb
REMARK  231 active torsions:
REMARK  status: ('A' for Active; 'I' for Inactive)
REMARK    1  A    between atoms: _1  and  _3
REMARK    2  A    between atoms: _3  and  _4
REMARK    3  A    between atoms: _3  and  _6
REMARK    4  A    between atoms: _6  and  _7
REMARK    5  A    between atoms: _10  and  _12
REMARK    6  A    between atoms: _12  and  _13
REMARK    7  A    between atoms: _12  and  _15
REMARK    8  A    between atoms: _15  and  _16
REMARK    9  A    between atoms: _21  and  _23
REMARK   10  A    between atoms: _23  and  _24
REMARK   11  A    between atoms: _23  and  _26
REMARK   12  A    between atoms: _26  and  _27
REMARK   13  A    between atoms: _29  and  _31
REMARK   14  A    between atoms: _31  and  _32
REMARK   15  A    between atoms: _35  and  _36
REMARK   16  A    between atoms: _41  and  _43
REMARK   17  A    between atoms: _43  and  _44
REMARK   18  A    between atoms: _43  and  _46
REMARK   19  A    between atoms: _46  and  _47
REMARK   20  A    between atoms: _52  and  _54
REMARK   21  A    between atoms: _54  and  _55
REMARK   22  A    between atoms: _57  and  _59
REMARK   23  A    between atoms: _59  and  _60
REMARK   24  A    between atoms: _59  and  _62
REMARK   25  A    between atoms: _62  and  _63
REMARK   26  A    between atoms: _73  and  _75
REMARK   27  A    between atoms: _75  and  _76
REMARK   28  A    between atoms: _75  and  _78
REMARK   29  A    between atoms: _78  and  _79
REMARK   30  A    between atoms: _79  and  _80
REMARK   31  A    between atoms: _80  and  _81
REMARK   32  A    between atoms: _81  and  _82
REMARK   33  A    between atoms: _86  and  _88
REMARK   34  A    between atoms: _88  and  _89
REMARK   35  A    between atoms: _88  and  _91
REMARK   36  A    between atoms: _94  and  _96
REMARK   37  A    between atoms: _96  and  _97
REMARK   38  A    between atoms: _96  and  _99
REMARK   39  A    between atoms: _99  and  _100
REMARK   40  A    between atoms: _103  and  _105
REMARK   41  A    between atoms: _105  and  _106
REMARK   42  A    between atoms: _105  and  _108
REMARK   43  A    between atoms: _108  and  _109
REMARK   44  A    between atoms: _112  and  _114
REMARK   45  A    between atoms: _114  and  _115
REMARK   46  A    between atoms: _114  and  _117
REMARK   47  A    between atoms: _117  and  _118
REMARK   48  A    between atoms: _118  and  _119
REMARK   49  A    between atoms: _121  and  _123
REMARK   50  A    between atoms: _123  and  _124
REMARK   51  A    between atoms: _126  and  _128
REMARK   52  A    between atoms: _128  and  _129
REMARK   53  A    between atoms: _128  and  _131
REMARK   54  A    between atoms: _131  and  _132
REMARK   55  A    between atoms: _137  and  _139
REMARK   56  A    between atoms: _139  and  _140
REMARK   57  A    between atoms: _139  and  _142
REMARK   58  A    between atoms: _142  and  _143
REMARK   59  A    between atoms: _143  and  _144
REMARK   60  A    between atoms: _144  and  _145
REMARK   61  A    between atoms: _145  and  _146
REMARK   62  A    between atoms: _150  and  _152
REMARK   63  A    between atoms: _152  and  _153
REMARK   64  A    between atoms: _152  and  _155
REMARK   65  A    between atoms: _155  and  _156
REMARK   66  A    between atoms: _161  and  _162
REMARK   67  A    between atoms: _164  and  _166
REMARK   68  A    between atoms: _166  and  _167
REMARK   69  A    between atoms: _166  and  _169
REMARK   70  A    between atoms: _169  and  _170
REMARK   71  A    between atoms: _175  and  _177
REMARK   72  A    between atoms: _177  and  _178
REMARK   73  A    between atoms: _177  and  _180
REMARK   74  A    between atoms: _180  and  _181
REMARK   75  A    between atoms: _186  and  _188
REMARK   76  A    between atoms: _188  and  _189
REMARK   77  A    between atoms: _191  and  _193
REMARK   78  A    between atoms: _193  and  _194
REMARK   79  A    between atoms: _193  and  _196
REMARK   80  A    between atoms: _196  and  _197
REMARK   81  A    between atoms: _197  and  _198
REMARK   82  A    between atoms: _198  and  _199
REMARK   83  A    between atoms: _208  and  _210
REMARK   84  A    between atoms: _210  and  _211
REMARK   85  A    between atoms: _210  and  _213
REMARK   86  A    between atoms: _217  and  _218
REMARK   87  A    between atoms: _223  and  _225
REMARK   88  A    between atoms: _225  and  _226
REMARK   89  A    between atoms: _229  and  _231
REMARK   90  A    between atoms: _231  and  _232
REMARK   91  A    between atoms: _231  and  _234
REMARK   92  A    between atoms: _234  and  _235
REMARK   93  A    between atoms: _245  and  _247
REMARK   94  A    between atoms: _247  and  _248
REMARK   95  A    between atoms: _247  and  _250
REMARK   96  A    between atoms: _250  and  _251
REMARK   97  A    between atoms: _251  and  _252
REMARK   98  A    between atoms: _255  and  _257
REMARK   99  A    between atoms: _257  and  _258
REMARK  100  A    between atoms: _257  and  _260
REMARK  101  A    between atoms: _260  and  _261
REMARK  102  A    between atoms: _263  and  _265
REMARK  103  A    between atoms: _265  and  _266
REMARK  104  A    between atoms: _265  and  _268
REMARK  105  A    between atoms: _268  and  _269
REMARK  106  A    between atoms: _274  and  _276
REMARK  107  A    between atoms: _276  and  _277
REMARK  108  A    between atoms: _280  and  _282
REMARK  109  A    between atoms: _282  and  _283
REMARK  110  A    between atoms: _282  and  _285
REMARK  111  A    between atoms: _288  and  _290
REMARK  112  A    between atoms: _290  and  _291
REMARK  113  A    between atoms: _290  and  _293
REMARK  114  A    between atoms: _293  and  _294
REMARK  115  A    between atoms: _297  and  _299
REMARK  116  A    between atoms: _299  and  _300
REMARK  117  A    between atoms: _299  and  _302
REMARK  118  A    between atoms: _302  and  _303
REMARK  119  A    between atoms: _303  and  _304
REMARK  120  A    between atoms: _309  and  _311
REMARK  121  A    between atoms: _311  and  _312
REMARK  122  A    between atoms: _315  and  _317
REMARK  123  A    between atoms: _317  and  _318
REMARK  124  A    between atoms: _317  and  _320
REMARK  125  A    between atoms: _320  and  _321
REMARK  126  A    between atoms: _323  and  _325
REMARK  127  A    between atoms: _325  and  _326
REMARK  128  A    between atoms: _328  and  _330
REMARK  129  A    between atoms: _330  and  _331
REMARK  130  A    between atoms: _330  and  _333
REMARK  131  A    between atoms: _333  and  _334
REMARK  132  A    between atoms: _334  and  _335
REMARK  133  A    between atoms: _340  and  _342
REMARK  134  A    between atoms: _342  and  _343
REMARK  135  A    between atoms: _346  and  _347
REMARK  136  A    between atoms: _352  and  _354
REMARK  137  A    between atoms: _354  and  _355
REMARK  138  A    between atoms: _354  and  _357
REMARK  139  A    between atoms: _357  and  _358
REMARK  140  A    between atoms: _363  and  _364
REMARK  141  A    between atoms: _366  and  _368
REMARK  142  A    between atoms: _368  and  _369
REMARK  143  A    between atoms: _368  and  _371
REMARK  144  A    between atoms: _371  and  _372
REMARK  145  A    between atoms: _377  and  _378
REMARK  146  A    between atoms: _380  and  _382
REMARK  147  A    between atoms: _382  and  _383
REMARK  148  A    between atoms: _385  and  _387
REMARK  149  A    between atoms: _387  and  _388
REMARK  150  A    between atoms: _387  and  _390
REMARK  151  A    between atoms: _390  and  _391
REMARK  152  A    between atoms: _391  and  _392
REMARK  153  A    between atoms: _397  and  _399
REMARK  154  A    between atoms: _399  and  _400
REMARK  155  A    between atoms: _403  and  _405
REMARK  156  A    between atoms: _405  and  _406
REMARK  157  A    between atoms: _409  and  _411
REMARK  158  A    between atoms: _411  and  _412
REMARK  159  A    between atoms: _411  and  _414
REMARK  160  A    between atoms: _414  and  _415
REMARK  161  A    between atoms: _425  and  _427
REMARK  162  A    between atoms: _427  and  _428
REMARK  163  A    between atoms: _427  and  _430
REMARK  164  A    between atoms: _430  and  _431
REMARK  165  A    between atoms: _437  and  _439
REMARK  166  A    between atoms: _439  and  _440
REMARK  167  A    between atoms: _439  and  _442
REMARK  168  A    between atoms: _442  and  _443
REMARK  169  A    between atoms: _448  and  _449
REMARK  170  A    between atoms: _451  and  _453
REMARK  171  A    between atoms: _453  and  _454
REMARK  172  A    between atoms: _453  and  _456
REMARK  173  A    between atoms: _456  and  _457
REMARK  174  A    between atoms: _460  and  _462
REMARK  175  A    between atoms: _462  and  _463
REMARK  176  A    between atoms: _462  and  _465
REMARK  177  A    between atoms: _465  and  _466
REMARK  178  A    between atoms: _476  and  _478
REMARK  179  A    between atoms: _478  and  _479
REMARK  180  A    between atoms: _478  and  _481
REMARK  181  A    between atoms: _481  and  _482
REMARK  182  A    between atoms: _485  and  _487
REMARK  183  A    between atoms: _487  and  _488
REMARK  184  A    between atoms: _487  and  _490
REMARK  185  A    between atoms: _490  and  _491
REMARK  186  A    between atoms: _496  and  _497
REMARK  187  A    between atoms: _499  and  _501
REMARK  188  A    between atoms: _501  and  _502
REMARK  189  A    between atoms: _501  and  _504
REMARK  190  A    between atoms: _504  and  _505
REMARK  191  A    between atoms: _511  and  _513
REMARK  192  A    between atoms: _513  and  _514
REMARK  193  A    between atoms: _517  and  _519
REMARK  194  A    between atoms: _519  and  _520
REMARK  195  A    between atoms: _519  and  _522
REMARK  196  A    between atoms: _522  and  _523
REMARK  197  A    between atoms: _525  and  _527
REMARK  198  A    between atoms: _527  and  _528
REMARK  199  A    between atoms: _530  and  _532
REMARK  200  A    between atoms: _532  and  _533
REMARK  201  A    between atoms: _532  and  _535
REMARK  202  A    between atoms: _535  and  _536
REMARK  203  A    between atoms: _536  and  _537
REMARK  204  A    between atoms: _543  and  _544
REMARK  205  A    between atoms: _549  and  _551
REMARK  206  A    between atoms: _551  and  _552
REMARK  207  A    between atoms: _551  and  _554
REMARK  208  A    between atoms: _554  and  _555
REMARK  209  A    between atoms: _560  and  _561
REMARK  210  A    between atoms: _563  and  _565
REMARK  211  A    between atoms: _565  and  _566
REMARK  212  A    between atoms: _565  and  _568
REMARK  213  A    between atoms: _568  and  _569
REMARK  214  A    between atoms: _569  and  _570
REMARK  215  A    between atoms: _570  and  _571
REMARK  216  A    between atoms: _580  and  _582
REMARK  217  A    between atoms: _582  and  _583
REMARK  218  A    between atoms: _582  and  _585
REMARK  219  A    between atoms: _585  and  _586
REMARK  220  A    between atoms: _591  and  _592
REMARK  221  A    between atoms: _594  and  _596
REMARK  222  A    between atoms: _596  and  _597
REMARK  223  A    between atoms: _596  and  _599
REMARK  224  A    between atoms: _599  and  _600
REMARK  225  A    between atoms: _600  and  _601
REMARK  226  A    between atoms: _604  and  _606
REMARK  227  A    between atoms: _606  and  _607
REMARK  228  A    between atoms: _606  and  _609
REMARK  229  A    between atoms: _609  and  _610
REMARK  230  A    between atoms: _610  and  _611
REMARK  231  A    between atoms: _611  and  _612
REMARK                            x       y       z     vdW  Elec       q    Type
REMARK                         _______ _______ _______ _____ _____    ______ ____
ROOT
ATOM      1  O   HOH     1      27.857  10.620  12.369  0.00  0.00    +0.000 OA
ENDROOT
TORSDOF 0
REMARK  Name = ../refined-set-2016/4zb6/4zb6_pocket.pdb
REMARK  231 active torsions:
REMARK  status: ('A' for Active; 'I' for Inactive)
REMARK    1  A    between atoms: _1  and  _3
REMARK    2  A    between atoms: _3  and  _4
REMARK    3  A    between atoms: _3  and  _6
REMARK    4  A    between atoms: _6  and  _7
REMARK    5  A    between atoms: _10  and  _12
REMARK    6  A    between atoms: _12  and  _13
REMARK    7  A    between atoms: _12  and  _15
REMARK    8  A    between atoms: _15  and  _16
REMARK    9  A    between atoms: _21  and  _23
REMARK   10  A    between atoms: _23  and  _24
REMARK   11  A    between atoms: _23  and  _26
REMARK   12  A    between atoms: _26  and  _27
REMARK   13  A    between atoms: _29  and  _31
REMARK   14  A    between atoms: _31  and  _32
REMARK   15  A    between atoms: _35  and  _36
REMARK   16  A    between atoms: _41  and  _43
REMARK   17  A    between atoms: _43  and  _44
REMARK   18  A    between atoms: _43  and  _46
REMARK   19  A    between atoms: _46  and  _47
REMARK   20  A    between atoms: _52  and  _54
REMARK   21  A    between atoms: _54  and  _55
REMARK   22  A    between atoms: _57  and  _59
REMARK   23  A    between atoms: _59  and  _60
REMARK   24  A    between atoms: _59  and  _62
REMARK   25  A    between atoms: _62  and  _63
REMARK   26  A    between atoms: _73  and  _75
REMARK   27  A    between atoms: _75  and  _76
REMARK   28  A    between atoms: _75  and  _78
REMARK   29  A    between atoms: _78  and  _79
REMARK   30  A    between atoms: _79  and  _80
REMARK   31  A    between atoms: _80  and  _81
REMARK   32  A    between atoms: _81  and  _82
REMARK   33  A    between atoms: _86  and  _88
REMARK   34  A    between atoms: _88  and  _89
REMARK   35  A    between atoms: _88  and  _91
REMARK   36  A    between atoms: _94  and  _96
REMARK   37  A    between atoms: _96  and  _97
REMARK   38  A    between atoms: _96  and  _99
REMARK   39  A    between atoms: _99  and  _100
REMARK   40  A    between atoms: _103  and  _105
REMARK   41  A    between atoms: _105  and  _106
REMARK   42  A    between atoms: _105  and  _108
REMARK   43  A    between atoms: _108  and  _109
REMARK   44  A    between atoms: _112  and  _114
REMARK   45  A    between atoms: _114  and  _115
REMARK   46  A    between atoms: _114  and  _117
REMARK   47  A    between atoms: _117  and  _118
REMARK   48  A    between atoms: _118  and  _119
REMARK   49  A    between atoms: _121  and  _123
REMARK   50  A    between atoms: _123  and  _124
REMARK   51  A    between atoms: _126  and  _128
REMARK   52  A    between atoms: _128  and  _129
REMARK   53  A    between atoms: _128  and  _131
REMARK   54  A    between atoms: _131  and  _132
REMARK   55  A    between atoms: _137  and  _139
REMARK   56  A    between atoms: _139  and  _140
REMARK   57  A    between atoms: _139  and  _142
REMARK   58  A    between atoms: _142  and  _143
REMARK   59  A    between atoms: _143  and  _144
REMARK   60  A    between atoms: _144  and  _145
REMARK   61  A    between atoms: _145  and  _146
REMARK   62  A    between atoms: _150  and  _152
REMARK   63  A    between atoms: _152  and  _153
REMARK   64  A    between atoms: _152  and  _155
REMARK   65  A    between atoms: _155  and  _156
REMARK   66  A    between atoms: _161  and  _162
REMARK   67  A    between atoms: _164  and  _166
REMARK   68  A    between atoms: _166  and  _167
REMARK   69  A    between atoms: _166  and  _169
REMARK   70  A    between atoms: _169  and  _170
REMARK   71  A    between atoms: _175  and  _177
REMARK   72  A    between atoms: _177  and  _178
REMARK   73  A    between atoms: _177  and  _180
REMARK   74  A    between atoms: _180  and  _181
REMARK   75  A    between atoms: _186  and  _188
REMARK   76  A    between atoms: _188  and  _189
REMARK   77  A    between atoms: _191  and  _193
REMARK   78  A    between atoms: _193  and  _194
REMARK   79  A    between atoms: _193  and  _196
REMARK   80  A    between atoms: _196  and  _197
REMARK   81  A    between atoms: _197  and  _198
REMARK   82  A    between atoms: _198  and  _199
REMARK   83  A    between atoms: _208  and  _210
REMARK   84  A    between atoms: _210  and  _211
REMARK   85  A    between atoms: _210  and  _213
REMARK   86  A    between atoms: _217  and  _218
REMARK   87  A    between atoms: _223  and  _225
REMARK   88  A    between atoms: _225  and  _226
REMARK   89  A    between atoms: _229  and  _231
REMARK   90  A    between atoms: _231  and  _232
REMARK   91  A    between atoms: _231  and  _234
REMARK   92  A    between atoms: _234  and  _235
REMARK   93  A    between atoms: _245  and  _247
REMARK   94  A    between atoms: _247  and  _248
REMARK   95  A    between atoms: _247  and  _250
REMARK   96  A    between atoms: _250  and  _251
REMARK   97  A    between atoms: _251  and  _252
REMARK   98  A    between atoms: _255  and  _257
REMARK   99  A    between atoms: _257  and  _258
REMARK  100  A    between atoms: _257  and  _260
REMARK  101  A    between atoms: _260  and  _261
REMARK  102  A    between atoms: _263  and  _265
REMARK  103  A    between atoms: _265  and  _266
REMARK  104  A    between atoms: _265  and  _268
REMARK  105  A    between atoms: _268  and  _269
REMARK  106  A    between atoms: _274  and  _276
REMARK  107  A    between atoms: _276  and  _277
REMARK  108  A    between atoms: _280  and  _282
REMARK  109  A    between atoms: _282  and  _283
REMARK  110  A    between atoms: _282  and  _285
REMARK  111  A    between atoms: _288  and  _290
REMARK  112  A    between atoms: _290  and  _291
REMARK  113  A    between atoms: _290  and  _293
REMARK  114  A    between atoms: _293  and  _294
REMARK  115  A    between atoms: _297  and  _299
REMARK  116  A    between atoms: _299  and  _300
REMARK  117  A    between atoms: _299  and  _302
REMARK  118  A    between atoms: _302  and  _303
REMARK  119  A    between atoms: _303  and  _304
REMARK  120  A    between atoms: _309  and  _311
REMARK  121  A    between atoms: _311  and  _312
REMARK  122  A    between atoms: _315  and  _317
REMARK  123  A    between atoms: _317  and  _318
REMARK  124  A    between atoms: _317  and  _320
REMARK  125  A    between atoms: _320  and  _321
REMARK  126  A    between atoms: _323  and  _325
REMARK  127  A    between atoms: _325  and  _326
REMARK  128  A    between atoms: _328  and  _330
REMARK  129  A    between atoms: _330  and  _331
REMARK  130  A    between atoms: _330  and  _333
REMARK  131  A    between atoms: _333  and  _334
REMARK  132  A    between atoms: _334  and  _335
REMARK  133  A    between atoms: _340  and  _342
REMARK  134  A    between atoms: _342  and  _343
REMARK  135  A    between atoms: _346  and  _347
REMARK  136  A    between atoms: _352  and  _354
REMARK  137  A    between atoms: _354  and  _355
REMARK  138  A    between atoms: _354  and  _357
REMARK  139  A    between atoms: _357  and  _358
REMARK  140  A    between atoms: _363  and  _364
REMARK  141  A    between atoms: _366  and  _368
REMARK  142  A    between atoms: _368  and  _369
REMARK  143  A    between atoms: _368  and  _371
REMARK  144  A    between atoms: _371  and  _372
REMARK  145  A    between atoms: _377  and  _378
REMARK  146  A    between atoms: _380  and  _382
REMARK  147  A    between atoms: _382  and  _383
REMARK  148  A    between atoms: _385  and  _387
REMARK  149  A    between atoms: _387  and  _388
REMARK  150  A    between atoms: _387  and  _390
REMARK  151  A    between atoms: _390  and  _391
REMARK  152  A    between atoms: _391  and  _392
REMARK  153  A    between atoms: _397  and  _399
REMARK  154  A    between atoms: _399  and  _400
REMARK  155  A    between atoms: _403  and  _405
REMARK  156  A    between atoms: _405  and  _406
REMARK  157  A    between atoms: _409  and  _411
REMARK  158  A    between atoms: _411  and  _412
REMARK  159  A    between atoms: _411  and  _414
REMARK  160  A    between atoms: _414  and  _415
REMARK  161  A    between atoms: _425  and  _427
REMARK  162  A    between atoms: _427  and  _428
REMARK  163  A    between atoms: _427  and  _430
REMARK  164  A    between atoms: _430  and  _431
REMARK  165  A    between atoms: _437  and  _439
REMARK  166  A    between atoms: _439  and  _440
REMARK  167  A    between atoms: _439  and  _442
REMARK  168  A    between atoms: _442  and  _443
REMARK  169  A    between atoms: _448  and  _449
REMARK  170  A    between atoms: _451  and  _453
REMARK  171  A    between atoms: _453  and  _454
REMARK  172  A    between atoms: _453  and  _456
REMARK  173  A    between atoms: _456  and  _457
REMARK  174  A    between atoms: _460  and  _462
REMARK  175  A    between atoms: _462  and  _463
REMARK  176  A    between atoms: _462  and  _465
REMARK  177  A    between atoms: _465  and  _466
REMARK  178  A    between atoms: _476  and  _478
REMARK  179  A    between atoms: _478  and  _479
REMARK  180  A    between atoms: _478  and  _481
REMARK  181  A    between atoms: _481  and  _482
REMARK  182  A    between atoms: _485  and  _487
REMARK  183  A    between atoms: _487  and  _488
REMARK  184  A    between atoms: _487  and  _490
REMARK  185  A    between atoms: _490  and  _491
REMARK  186  A    between atoms: _496  and  _497
REMARK  187  A    between atoms: _499  and  _501
REMARK  188  A    between atoms: _501  and  _502
REMARK  189  A    between atoms: _501  and  _504
REMARK  190  A    between atoms: _504  and  _505
REMARK  191  A    between atoms: _511  and  _513
REMARK  192  A    between atoms: _513  and  _514
REMARK  193  A    between atoms: _517  and  _519
REMARK  194  A    between atoms: _519  and  _520
REMARK  195  A    between atoms: _519  and  _522
REMARK  196  A    between atoms: _522  and  _523
REMARK  197  A    between atoms: _525  and  _527
REMARK  198  A    between atoms: _527  and  _528
REMARK  199  A    between atoms: _530  and  _532
REMARK  200  A    between atoms: _532  and  _533
REMARK  201  A    between atoms: _532  and  _535
REMARK  202  A    between atoms: _535  and  _536
REMARK  203  A    between atoms: _536  and  _537
REMARK  204  A    between atoms: _543  and  _544
REMARK  205  A    between atoms: _549  and  _551
REMARK  206  A    between atoms: _551  and  _552
REMARK  207  A    between atoms: _551  and  _554
REMARK  208  A    between atoms: _554  and  _555
REMARK  209  A    between atoms: _560  and  _561
REMARK  210  A    between atoms: _563  and  _565
REMARK  211  A    between atoms: _565  and  _566
REMARK  212  A    between atoms: _565  and  _568
REMARK  213  A    between atoms: _568  and  _569
REMARK  214  A    between atoms: _569  and  _570
REMARK  215  A    between atoms: _570  and  _571
REMARK  216  A    between atoms: _580  and  _582
REMARK  217  A    between atoms: _582  and  _583
REMARK  218  A    between atoms: _582  and  _585
REMARK  219  A    between atoms: _585  and  _586
REMARK  220  A    between atoms: _591  and  _592
REMARK  221  A    between atoms: _594  and  _596
REMARK  222  A    between atoms: _596  and  _597
REMARK  223  A    between atoms: _596  and  _599
REMARK  224  A    between atoms: _599  and  _600
REMARK  225  A    between atoms: _600  and  _601
REMARK  226  A    between atoms: _604  and  _606
REMARK  227  A    between atoms: _606  and  _607
REMARK  228  A    between atoms: _606  and  _609
REMARK  229  A    between atoms: _609  and  _610
REMARK  230  A    between atoms: _610  and  _611
REMARK  231  A    between atoms: _611  and  _612
REMARK                            x       y       z     vdW  Elec       q    Type
REMARK                         _______ _______ _______ _____ _____    ______ ____
ROOT
ATOM      1  O   HOH     1      25.312  10.401  11.102  0.00  0.00    +0.000 OA
ENDROOT
TORSDOF 0
REMARK  Name = ../refined-set-2016/4zb6/4zb6_pocket.pdb
REMARK  231 active torsions:
REMARK  status: ('A' for Active; 'I' for Inactive)
REMARK    1  A    between atoms: _1  and  _3
REMARK    2  A    between atoms: _3  and  _4
REMARK    3  A    between atoms: _3  and  _6
REMARK    4  A    between atoms: _6  and  _7
REMARK    5  A    between atoms: _10  and  _12
REMARK    6  A    between atoms: _12  and  _13
REMARK    7  A    between atoms: _12  and  _15
REMARK    8  A    between atoms: _15  and  _16
REMARK    9  A    between atoms: _21  and  _23
REMARK   10  A    between atoms: _23  and  _24
REMARK   11  A    between atoms: _23  and  _26
REMARK   12  A    between atoms: _26  and  _27
REMARK   13  A    between atoms: _29  and  _31
REMARK   14  A    between atoms: _31  and  _32
REMARK   15  A    between atoms: _35  and  _36
REMARK   16  A    between atoms: _41  and  _43
REMARK   17  A    between atoms: _43  and  _44
REMARK   18  A    between atoms: _43  and  _46
REMARK   19  A    between atoms: _46  and  _47
REMARK   20  A    between atoms: _52  and  _54
REMARK   21  A    between atoms: _54  and  _55
REMARK   22  A    between atoms: _57  and  _59
REMARK   23  A    between atoms: _59  and  _60
REMARK   24  A    between atoms: _59  and  _62
REMARK   25  A    between atoms: _62  and  _63
REMARK   26  A    between atoms: _73  and  _75
REMARK   27  A    between atoms: _75  and  _76
REMARK   28  A    between atoms: _75  and  _78
REMARK   29  A    between atoms: _78  and  _79
REMARK   30  A    between atoms: _79  and  _80
REMARK   31  A    between atoms: _80  and  _81
REMARK   32  A    between atoms: _81  and  _82
REMARK   33  A    between atoms: _86  and  _88
REMARK   34  A    between atoms: _88  and  _89
REMARK   35  A    between atoms: _88  and  _91
REMARK   36  A    between atoms: _94  and  _96
REMARK   37  A    between atoms: _96  and  _97
REMARK   38  A    between atoms: _96  and  _99
REMARK   39  A    between atoms: _99  and  _100
REMARK   40  A    between atoms: _103  and  _105
REMARK   41  A    between atoms: _105  and  _106
REMARK   42  A    between atoms: _105  and  _108
REMARK   43  A    between atoms: _108  and  _109
REMARK   44  A    between atoms: _112  and  _114
REMARK   45  A    between atoms: _114  and  _115
REMARK   46  A    between atoms: _114  and  _117
REMARK   47  A    between atoms: _117  and  _118
REMARK   48  A    between atoms: _118  and  _119
REMARK   49  A    between atoms: _121  and  _123
REMARK   50  A    between atoms: _123  and  _124
REMARK   51  A    between atoms: _126  and  _128
REMARK   52  A    between atoms: _128  and  _129
REMARK   53  A    between atoms: _128  and  _131
REMARK   54  A    between atoms: _131  and  _132
REMARK   55  A    between atoms: _137  and  _139
REMARK   56  A    between atoms: _139  and  _140
REMARK   57  A    between atoms: _139  and  _142
REMARK   58  A    between atoms: _142  and  _143
REMARK   59  A    between atoms: _143  and  _144
REMARK   60  A    between atoms: _144  and  _145
REMARK   61  A    between atoms: _145  and  _146
REMARK   62  A    between atoms: _150  and  _152
REMARK   63  A    between atoms: _152  and  _153
REMARK   64  A    between atoms: _152  and  _155
REMARK   65  A    between atoms: _155  and  _156
REMARK   66  A    between atoms: _161  and  _162
REMARK   67  A    between atoms: _164  and  _166
REMARK   68  A    between atoms: _166  and  _167
REMARK   69  A    between atoms: _166  and  _169
REMARK   70  A    between atoms: _169  and  _170
REMARK   71  A    between atoms: _175  and  _177
REMARK   72  A    between atoms: _177  and  _178
REMARK   73  A    between atoms: _177  and  _180
REMARK   74  A    between atoms: _180  and  _181
REMARK   75  A    between atoms: _186  and  _188
REMARK   76  A    between atoms: _188  and  _189
REMARK   77  A    between atoms: _191  and  _193
REMARK   78  A    between atoms: _193  and  _194
REMARK   79  A    between atoms: _193  and  _196
REMARK   80  A    between atoms: _196  and  _197
REMARK   81  A    between atoms: _197  and  _198
REMARK   82  A    between atoms: _198  and  _199
REMARK   83  A    between atoms: _208  and  _210
REMARK   84  A    between atoms: _210  and  _211
REMARK   85  A    between atoms: _210  and  _213
REMARK   86  A    between atoms: _217  and  _218
REMARK   87  A    between atoms: _223  and  _225
REMARK   88  A    between atoms: _225  and  _226
REMARK   89  A    between atoms: _229  and  _231
REMARK   90  A    between atoms: _231  and  _232
REMARK   91  A    between atoms: _231  and  _234
REMARK   92  A    between atoms: _234  and  _235
REMARK   93  A    between atoms: _245  and  _247
REMARK   94  A    between atoms: _247  and  _248
REMARK   95  A    between atoms: _247  and  _250
REMARK   96  A    between atoms: _250  and  _251
REMARK   97  A    between atoms: _251  and  _252
REMARK   98  A    between atoms: _255  and  _257
REMARK   99  A    between atoms: _257  and  _258
REMARK  100  A    between atoms: _257  and  _260
REMARK  101  A    between atoms: _260  and  _261
REMARK  102  A    between atoms: _263  and  _265
REMARK  103  A    between atoms: _265  and  _266
REMARK  104  A    between atoms: _265  and  _268
REMARK  105  A    between atoms: _268  and  _269
REMARK  106  A    between atoms: _274  and  _276
REMARK  107  A    between atoms: _276  and  _277
REMARK  108  A    between atoms: _280  and  _282
REMARK  109  A    between atoms: _282  and  _283
REMARK  110  A    between atoms: _282  and  _285
REMARK  111  A    between atoms: _288  and  _290
REMARK  112  A    between atoms: _290  and  _291
REMARK  113  A    between atoms: _290  and  _293
REMARK  114  A    between atoms: _293  and  _294
REMARK  115  A    between atoms: _297  and  _299
REMARK  116  A    between atoms: _299  and  _300
REMARK  117  A    between atoms: _299  and  _302
REMARK  118  A    between atoms: _302  and  _303
REMARK  119  A    between atoms: _303  and  _304
REMARK  120  A    between atoms: _309  and  _311
REMARK  121  A    between atoms: _311  and  _312
REMARK  122  A    between atoms: _315  and  _317
REMARK  123  A    between atoms: _317  and  _318
REMARK  124  A    between atoms: _317  and  _320
REMARK  125  A    between atoms: _320  and  _321
REMARK  126  A    between atoms: _323  and  _325
REMARK  127  A    between atoms: _325  and  _326
REMARK  128  A    between atoms: _328  and  _330
REMARK  129  A    between atoms: _330  and  _331
REMARK  130  A    between atoms: _330  and  _333
REMARK  131  A    between atoms: _333  and  _334
REMARK  132  A    between atoms: _334  and  _335
REMARK  133  A    between atoms: _340  and  _342
REMARK  134  A    between atoms: _342  and  _343
REMARK  135  A    between atoms: _346  and  _347
REMARK  136  A    between atoms: _352  and  _354
REMARK  137  A    between atoms: _354  and  _355
REMARK  138  A    between atoms: _354  and  _357
REMARK  139  A    between atoms: _357  and  _358
REMARK  140  A    between atoms: _363  and  _364
REMARK  141  A    between atoms: _366  and  _368
REMARK  142  A    between atoms: _368  and  _369
REMARK  143  A    between atoms: _368  and  _371
REMARK  144  A    between atoms: _371  and  _372
REMARK  145  A    between atoms: _377  and  _378
REMARK  146  A    between atoms: _380  and  _382
REMARK  147  A    between atoms: _382  and  _383
REMARK  148  A    between atoms: _385  and  _387
REMARK  149  A    between atoms: _387  and  _388
REMARK  150  A    between atoms: _387  and  _390
REMARK  151  A    between atoms: _390  and  _391
REMARK  152  A    between atoms: _391  and  _392
REMARK  153  A    between atoms: _397  and  _399
REMARK  154  A    between atoms: _399  and  _400
REMARK  155  A    between atoms: _403  and  _405
REMARK  156  A    between atoms: _405  and  _406
REMARK  157  A    between atoms: _409  and  _411
REMARK  158  A    between atoms: _411  and  _412
REMARK  159  A    between atoms: _411  and  _414
REMARK  160  A    between atoms: _414  and  _415
REMARK  161  A    between atoms: _425  and  _427
REMARK  162  A    between atoms: _427  and  _428
REMARK  163  A    between atoms: _427  and  _430
REMARK  164  A    between atoms: _430  and  _431
REMARK  165  A    between atoms: _437  and  _439
REMARK  166  A    between atoms: _439  and  _440
REMARK  167  A    between atoms: _439  and  _442
REMARK  168  A    between atoms: _442  and  _443
REMARK  169  A    between atoms: _448  and  _449
REMARK  170  A    between atoms: _451  and  _453
REMARK  171  A    between atoms: _453  and  _454
REMARK  172  A    between atoms: _453  and  _456
REMARK  173  A    between atoms: _456  and  _457
REMARK  174  A    between atoms: _460  and  _462
REMARK  175  A    between atoms: _462  and  _463
REMARK  176  A    between atoms: _462  and  _465
REMARK  177  A    between atoms: _465  and  _466
REMARK  178  A    between atoms: _476  and  _478
REMARK  179  A    between atoms: _478  and  _479
REMARK  180  A    between atoms: _478  and  _481
REMARK  181  A    between atoms: _481  and  _482
REMARK  182  A    between atoms: _485  and  _487
REMARK  183  A    between atoms: _487  and  _488
REMARK  184  A    between atoms: _487  and  _490
REMARK  185  A    between atoms: _490  and  _491
REMARK  186  A    between atoms: _496  and  _497
REMARK  187  A    between atoms: _499  and  _501
REMARK  188  A    between atoms: _501  and  _502
REMARK  189  A    between atoms: _501  and  _504
REMARK  190  A    between atoms: _504  and  _505
REMARK  191  A    between atoms: _511  and  _513
REMARK  192  A    between atoms: _513  and  _514
REMARK  193  A    between atoms: _517  and  _519
REMARK  194  A    between atoms: _519  and  _520
REMARK  195  A    between atoms: _519  and  _522
REMARK  196  A    between atoms: _522  and  _523
REMARK  197  A    between atoms: _525  and  _527
REMARK  198  A    between atoms: _527  and  _528
REMARK  199  A    between atoms: _530  and  _532
REMARK  200  A    between atoms: _532  and  _533
REMARK  201  A    between atoms: _532  and  _535
REMARK  202  A    between atoms: _535  and  _536
REMARK  203  A    between atoms: _536  and  _537
REMARK  204  A    between atoms: _543  and  _544
REMARK  205  A    between atoms: _549  and  _551
REMARK  206  A    between atoms: _551  and  _552
REMARK  207  A    between atoms: _551  and  _554
REMARK  208  A    between atoms: _554  and  _555
REMARK  209  A    between atoms: _560  and  _561
REMARK  210  A    between atoms: _563  and  _565
REMARK  211  A    between atoms: _565  and  _566
REMARK  212  A    between atoms: _565  and  _568
REMARK  213  A    between atoms: _568  and  _569
REMARK  214  A    between atoms: _569  and  _570
REMARK  215  A    between atoms: _570  and  _571
REMARK  216  A    between atoms: _580  and  _582
REMARK  217  A    between atoms: _582  and  _583
REMARK  218  A    between atoms: _582  and  _585
REMARK  219  A    between atoms: _585  and  _586
REMARK  220  A    between atoms: _591  and  _592
REMARK  221  A    between atoms: _594  and  _596
REMARK  222  A    between atoms: _596  and  _597
REMARK  223  A    between atoms: _596  and  _599
REMARK  224  A    between atoms: _599  and  _600
REMARK  225  A    between atoms: _600  and  _601
REMARK  226  A    between atoms: _604  and  _606
REMARK  227  A    between atoms: _606  and  _607
REMARK  228  A    between atoms: _606  and  _609
REMARK  229  A    between atoms: _609  and  _610
REMARK  230  A    between atoms: _610  and  _611
REMARK  231  A    between atoms: _611  and  _612
REMARK                            x       y       z     vdW  Elec       q    Type
REMARK                         _______ _______ _______ _____ _____    ______ ____
ROOT
ATOM      1  O   HOH     1      24.605  -2.942   7.403  0.00  0.00    +0.000 OA
ENDROOT
TORSDOF 0
REMARK  Name = ../refined-set-2016/4zb6/4zb6_pocket.pdb
REMARK  231 active torsions:
REMARK  status: ('A' for Active; 'I' for Inactive)
REMARK    1  A    between atoms: _1  and  _3
REMARK    2  A    between atoms: _3  and  _4
REMARK    3  A    between atoms: _3  and  _6
REMARK    4  A    between atoms: _6  and  _7
REMARK    5  A    between atoms: _10  and  _12
REMARK    6  A    between atoms: _12  and  _13
REMARK    7  A    between atoms: _12  and  _15
REMARK    8  A    between atoms: _15  and  _16
REMARK    9  A    between atoms: _21  and  _23
REMARK   10  A    between atoms: _23  and  _24
REMARK   11  A    between atoms: _23  and  _26
REMARK   12  A    between atoms: _26  and  _27
REMARK   13  A    between atoms: _29  and  _31
REMARK   14  A    between atoms: _31  and  _32
REMARK   15  A    between atoms: _35  and  _36
REMARK   16  A    between atoms: _41  and  _43
REMARK   17  A    between atoms: _43  and  _44
REMARK   18  A    between atoms: _43  and  _46
REMARK   19  A    between atoms: _46  and  _47
REMARK   20  A    between atoms: _52  and  _54
REMARK   21  A    between atoms: _54  and  _55
REMARK   22  A    between atoms: _57  and  _59
REMARK   23  A    between atoms: _59  and  _60
REMARK   24  A    between atoms: _59  and  _62
REMARK   25  A    between atoms: _62  and  _63
REMARK   26  A    between atoms: _73  and  _75
REMARK   27  A    between atoms: _75  and  _76
REMARK   28  A    between atoms: _75  and  _78
REMARK   29  A    between atoms: _78  and  _79
REMARK   30  A    between atoms: _79  and  _80
REMARK   31  A    between atoms: _80  and  _81
REMARK   32  A    between atoms: _81  and  _82
REMARK   33  A    between atoms: _86  and  _88
REMARK   34  A    between atoms: _88  and  _89
REMARK   35  A    between atoms: _88  and  _91
REMARK   36  A    between atoms: _94  and  _96
REMARK   37  A    between atoms: _96  and  _97
REMARK   38  A    between atoms: _96  and  _99
REMARK   39  A    between atoms: _99  and  _100
REMARK   40  A    between atoms: _103  and  _105
REMARK   41  A    between atoms: _105  and  _106
REMARK   42  A    between atoms: _105  and  _108
REMARK   43  A    between atoms: _108  and  _109
REMARK   44  A    between atoms: _112  and  _114
REMARK   45  A    between atoms: _114  and  _115
REMARK   46  A    between atoms: _114  and  _117
REMARK   47  A    between atoms: _117  and  _118
REMARK   48  A    between atoms: _118  and  _119
REMARK   49  A    between atoms: _121  and  _123
REMARK   50  A    between atoms: _123  and  _124
REMARK   51  A    between atoms: _126  and  _128
REMARK   52  A    between atoms: _128  and  _129
REMARK   53  A    between atoms: _128  and  _131
REMARK   54  A    between atoms: _131  and  _132
REMARK   55  A    between atoms: _137  and  _139
REMARK   56  A    between atoms: _139  and  _140
REMARK   57  A    between atoms: _139  and  _142
REMARK   58  A    between atoms: _142  and  _143
REMARK   59  A    between atoms: _143  and  _144
REMARK   60  A    between atoms: _144  and  _145
REMARK   61  A    between atoms: _145  and  _146
REMARK   62  A    between atoms: _150  and  _152
REMARK   63  A    between atoms: _152  and  _153
REMARK   64  A    between atoms: _152  and  _155
REMARK   65  A    between atoms: _155  and  _156
REMARK   66  A    between atoms: _161  and  _162
REMARK   67  A    between atoms: _164  and  _166
REMARK   68  A    between atoms: _166  and  _167
REMARK   69  A    between atoms: _166  and  _169
REMARK   70  A    between atoms: _169  and  _170
REMARK   71  A    between atoms: _175  and  _177
REMARK   72  A    between atoms: _177  and  _178
REMARK   73  A    between atoms: _177  and  _180
REMARK   74  A    between atoms: _180  and  _181
REMARK   75  A    between atoms: _186  and  _188
REMARK   76  A    between atoms: _188  and  _189
REMARK   77  A    between atoms: _191  and  _193
REMARK   78  A    between atoms: _193  and  _194
REMARK   79  A    between atoms: _193  and  _196
REMARK   80  A    between atoms: _196  and  _197
REMARK   81  A    between atoms: _197  and  _198
REMARK   82  A    between atoms: _198  and  _199
REMARK   83  A    between atoms: _208  and  _210
REMARK   84  A    between atoms: _210  and  _211
REMARK   85  A    between atoms: _210  and  _213
REMARK   86  A    between atoms: _217  and  _218
REMARK   87  A    between atoms: _223  and  _225
REMARK   88  A    between atoms: _225  and  _226
REMARK   89  A    between atoms: _229  and  _231
REMARK   90  A    between atoms: _231  and  _232
REMARK   91  A    between atoms: _231  and  _234
REMARK   92  A    between atoms: _234  and  _235
REMARK   93  A    between atoms: _245  and  _247
REMARK   94  A    between atoms: _247  and  _248
REMARK   95  A    between atoms: _247  and  _250
REMARK   96  A    between atoms: _250  and  _251
REMARK   97  A    between atoms: _251  and  _252
REMARK   98  A    between atoms: _255  and  _257
REMARK   99  A    between atoms: _257  and  _258
REMARK  100  A    between atoms: _257  and  _260
REMARK  101  A    between atoms: _260  and  _261
REMARK  102  A    between atoms: _263  and  _265
REMARK  103  A    between atoms: _265  and  _266
REMARK  104  A    between atoms: _265  and  _268
REMARK  105  A    between atoms: _268  and  _269
REMARK  106  A    between atoms: _274  and  _276
REMARK  107  A    between atoms: _276  and  _277
REMARK  108  A    between atoms: _280  and  _282
REMARK  109  A    between atoms: _282  and  _283
REMARK  110  A    between atoms: _282  and  _285
REMARK  111  A    between atoms: _288  and  _290
REMARK  112  A    between atoms: _290  and  _291
REMARK  113  A    between atoms: _290  and  _293
REMARK  114  A    between atoms: _293  and  _294
REMARK  115  A    between atoms: _297  and  _299
REMARK  116  A    between atoms: _299  and  _300
REMARK  117  A    between atoms: _299  and  _302
REMARK  118  A    between atoms: _302  and  _303
REMARK  119  A    between atoms: _303  and  _304
REMARK  120  A    between atoms: _309  and  _311
REMARK  121  A    between atoms: _311  and  _312
REMARK  122  A    between atoms: _315  and  _317
REMARK  123  A    between atoms: _317  and  _318
REMARK  124  A    between atoms: _317  and  _320
REMARK  125  A    between atoms: _320  and  _321
REMARK  126  A    between atoms: _323  and  _325
REMARK  127  A    between atoms: _325  and  _326
REMARK  128  A    between atoms: _328  and  _330
REMARK  129  A    between atoms: _330  and  _331
REMARK  130  A    between atoms: _330  and  _333
REMARK  131  A    between atoms: _333  and  _334
REMARK  132  A    between atoms: _334  and  _335
REMARK  133  A    between atoms: _340  and  _342
REMARK  134  A    between atoms: _342  and  _343
REMARK  135  A    between atoms: _346  and  _347
REMARK  136  A    between atoms: _352  and  _354
REMARK  137  A    between atoms: _354  and  _355
REMARK  138  A    between atoms: _354  and  _357
REMARK  139  A    between atoms: _357  and  _358
REMARK  140  A    between atoms: _363  and  _364
REMARK  141  A    between atoms: _366  and  _368
REMARK  142  A    between atoms: _368  and  _369
REMARK  143  A    between atoms: _368  and  _371
REMARK  144  A    between atoms: _371  and  _372
REMARK  145  A    between atoms: _377  and  _378
REMARK  146  A    between atoms: _380  and  _382
REMARK  147  A    between atoms: _382  and  _383
REMARK  148  A    between atoms: _385  and  _387
REMARK  149  A    between atoms: _387  and  _388
REMARK  150  A    between atoms: _387  and  _390
REMARK  151  A    between atoms: _390  and  _391
REMARK  152  A    between atoms: _391  and  _392
REMARK  153  A    between atoms: _397  and  _399
REMARK  154  A    between atoms: _399  and  _400
REMARK  155  A    between atoms: _403  and  _405
REMARK  156  A    between atoms: _405  and  _406
REMARK  157  A    between atoms: _409  and  _411
REMARK  158  A    between atoms: _411  and  _412
REMARK  159  A    between atoms: _411  and  _414
REMARK  160  A    between atoms: _414  and  _415
REMARK  161  A    between atoms: _425  and  _427
REMARK  162  A    between atoms: _427  and  _428
REMARK  163  A    between atoms: _427  and  _430
REMARK  164  A    between atoms: _430  and  _431
REMARK  165  A    between atoms: _437  and  _439
REMARK  166  A    between atoms: _439  and  _440
REMARK  167  A    between atoms: _439  and  _442
REMARK  168  A    between atoms: _442  and  _443
REMARK  169  A    between atoms: _448  and  _449
REMARK  170  A    between atoms: _451  and  _453
REMARK  171  A    between atoms: _453  and  _454
REMARK  172  A    between atoms: _453  and  _456
REMARK  173  A    between atoms: _456  and  _457
REMARK  174  A    between atoms: _460  and  _462
REMARK  175  A    between atoms: _462  and  _463
REMARK  176  A    between atoms: _462  and  _465
REMARK  177  A    between atoms: _465  and  _466
REMARK  178  A    between atoms: _476  and  _478
REMARK  179  A    between atoms: _478  and  _479
REMARK  180  A    between atoms: _478  and  _481
REMARK  181  A    between atoms: _481  and  _482
REMARK  182  A    between atoms: _485  and  _487
REMARK  183  A    between atoms: _487  and  _488
REMARK  184  A    between atoms: _487  and  _490
REMARK  185  A    between atoms: _490  and  _491
REMARK  186  A    between atoms: _496  and  _497
REMARK  187  A    between atoms: _499  and  _501
REMARK  188  A    between atoms: _501  and  _502
REMARK  189  A    between atoms: _501  and  _504
REMARK  190  A    between atoms: _504  and  _505
REMARK  191  A    between atoms: _511  and  _513
REMARK  192  A    between atoms: _513  and  _514
REMARK  193  A    between atoms: _517  and  _519
REMARK  194  A    between atoms: _519  and  _520
REMARK  195  A    between atoms: _519  and  _522
REMARK  196  A    between atoms: _522  and  _523
REMARK  197  A    between atoms: _525  and  _527
REMARK  198  A    between atoms: _527  and  _528
REMARK  199  A    between atoms: _530  and  _532
REMARK  200  A    between atoms: _532  and  _533
REMARK  201  A    between atoms: _532  and  _535
REMARK  202  A    between atoms: _535  and  _536
REMARK  203  A    between atoms: _536  and  _537
REMARK  204  A    between atoms: _543  and  _544
REMARK  205  A    between atoms: _549  and  _551
REMARK  206  A    between atoms: _551  and  _552
REMARK  207  A    between atoms: _551  and  _554
REMARK  208  A    between atoms: _554  and  _555
REMARK  209  A    between atoms: _560  and  _561
REMARK  210  A    between atoms: _563  and  _565
REMARK  211  A    between atoms: _565  and  _566
REMARK  212  A    between atoms: _565  and  _568
REMARK  213  A    between atoms: _568  and  _569
REMARK  214  A    between atoms: _569  and  _570
REMARK  215  A    between atoms: _570  and  _571
REMARK  216  A    between atoms: _580  and  _582
REMARK  217  A    between atoms: _582  and  _583
REMARK  218  A    between atoms: _582  and  _585
REMARK  219  A    between atoms: _585  and  _586
REMARK  220  A    between atoms: _591  and  _592
REMARK  221  A    between atoms: _594  and  _596
REMARK  222  A    between atoms: _596  and  _597
REMARK  223  A    between atoms: _596  and  _599
REMARK  224  A    between atoms: _599  and  _600
REMARK  225  A    between atoms: _600  and  _601
REMARK  226  A    between atoms: _604  and  _606
REMARK  227  A    between atoms: _606  and  _607
REMARK  228  A    between atoms: _606  and  _609
REMARK  229  A    between atoms: _609  and  _610
REMARK  230  A    between atoms: _610  and  _611
REMARK  231  A    between atoms: _611  and  _612
REMARK                            x       y       z     vdW  Elec       q    Type
REMARK                         _______ _______ _______ _____ _____    ______ ____
ROOT
ATOM      1  O   HOH     1      24.095  -2.176   4.827  0.00  0.00    +0.000 OA
ENDROOT
TORSDOF 0
REMARK  Name = ../refined-set-2016/4zb6/4zb6_pocket.pdb
REMARK  231 active torsions:
REMARK  status: ('A' for Active; 'I' for Inactive)
REMARK    1  A    between atoms: _1  and  _3
REMARK    2  A    between atoms: _3  and  _4
REMARK    3  A    between atoms: _3  and  _6
REMARK    4  A    between atoms: _6  and  _7
REMARK    5  A    between atoms: _10  and  _12
REMARK    6  A    between atoms: _12  and  _13
REMARK    7  A    between atoms: _12  and  _15
REMARK    8  A    between atoms: _15  and  _16
REMARK    9  A    between atoms: _21  and  _23
REMARK   10  A    between atoms: _23  and  _24
REMARK   11  A    between atoms: _23  and  _26
REMARK   12  A    between atoms: _26  and  _27
REMARK   13  A    between atoms: _29  and  _31
REMARK   14  A    between atoms: _31  and  _32
REMARK   15  A    between atoms: _35  and  _36
REMARK   16  A    between atoms: _41  and  _43
REMARK   17  A    between atoms: _43  and  _44
REMARK   18  A    between atoms: _43  and  _46
REMARK   19  A    between atoms: _46  and  _47
REMARK   20  A    between atoms: _52  and  _54
REMARK   21  A    between atoms: _54  and  _55
REMARK   22  A    between atoms: _57  and  _59
REMARK   23  A    between atoms: _59  and  _60
REMARK   24  A    between atoms: _59  and  _62
REMARK   25  A    between atoms: _62  and  _63
REMARK   26  A    between atoms: _73  and  _75
REMARK   27  A    between atoms: _75  and  _76
REMARK   28  A    between atoms: _75  and  _78
REMARK   29  A    between atoms: _78  and  _79
REMARK   30  A    between atoms: _79  and  _80
REMARK   31  A    between atoms: _80  and  _81
REMARK   32  A    between atoms: _81  and  _82
REMARK   33  A    between atoms: _86  and  _88
REMARK   34  A    between atoms: _88  and  _89
REMARK   35  A    between atoms: _88  and  _91
REMARK   36  A    between atoms: _94  and  _96
REMARK   37  A    between atoms: _96  and  _97
REMARK   38  A    between atoms: _96  and  _99
REMARK   39  A    between atoms: _99  and  _100
REMARK   40  A    between atoms: _103  and  _105
REMARK   41  A    between atoms: _105  and  _106
REMARK   42  A    between atoms: _105  and  _108
REMARK   43  A    between atoms: _108  and  _109
REMARK   44  A    between atoms: _112  and  _114
REMARK   45  A    between atoms: _114  and  _115
REMARK   46  A    between atoms: _114  and  _117
REMARK   47  A    between atoms: _117  and  _118
REMARK   48  A    between atoms: _118  and  _119
REMARK   49  A    between atoms: _121  and  _123
REMARK   50  A    between atoms: _123  and  _124
REMARK   51  A    between atoms: _126  and  _128
REMARK   52  A    between atoms: _128  and  _129
REMARK   53  A    between atoms: _128  and  _131
REMARK   54  A    between atoms: _131  and  _132
REMARK   55  A    between atoms: _137  and  _139
REMARK   56  A    between atoms: _139  and  _140
REMARK   57  A    between atoms: _139  and  _142
REMARK   58  A    between atoms: _142  and  _143
REMARK   59  A    between atoms: _143  and  _144
REMARK   60  A    between atoms: _144  and  _145
REMARK   61  A    between atoms: _145  and  _146
REMARK   62  A    between atoms: _150  and  _152
REMARK   63  A    between atoms: _152  and  _153
REMARK   64  A    between atoms: _152  and  _155
REMARK   65  A    between atoms: _155  and  _156
REMARK   66  A    between atoms: _161  and  _162
REMARK   67  A    between atoms: _164  and  _166
REMARK   68  A    between atoms: _166  and  _167
REMARK   69  A    between atoms: _166  and  _169
REMARK   70  A    between atoms: _169  and  _170
REMARK   71  A    between atoms: _175  and  _177
REMARK   72  A    between atoms: _177  and  _178
REMARK   73  A    between atoms: _177  and  _180
REMARK   74  A    between atoms: _180  and  _181
REMARK   75  A    between atoms: _186  and  _188
REMARK   76  A    between atoms: _188  and  _189
REMARK   77  A    between atoms: _191  and  _193
REMARK   78  A    between atoms: _193  and  _194
REMARK   79  A    between atoms: _193  and  _196
REMARK   80  A    between atoms: _196  and  _197
REMARK   81  A    between atoms: _197  and  _198
REMARK   82  A    between atoms: _198  and  _199
REMARK   83  A    between atoms: _208  and  _210
REMARK   84  A    between atoms: _210  and  _211
REMARK   85  A    between atoms: _210  and  _213
REMARK   86  A    between atoms: _217  and  _218
REMARK   87  A    between atoms: _223  and  _225
REMARK   88  A    between atoms: _225  and  _226
REMARK   89  A    between atoms: _229  and  _231
REMARK   90  A    between atoms: _231  and  _232
REMARK   91  A    between atoms: _231  and  _234
REMARK   92  A    between atoms: _234  and  _235
REMARK   93  A    between atoms: _245  and  _247
REMARK   94  A    between atoms: _247  and  _248
REMARK   95  A    between atoms: _247  and  _250
REMARK   96  A    between atoms: _250  and  _251
REMARK   97  A    between atoms: _251  and  _252
REMARK   98  A    between atoms: _255  and  _257
REMARK   99  A    between atoms: _257  and  _258
REMARK  100  A    between atoms: _257  and  _260
REMARK  101  A    between atoms: _260  and  _261
REMARK  102  A    between atoms: _263  and  _265
REMARK  103  A    between atoms: _265  and  _266
REMARK  104  A    between atoms: _265  and  _268
REMARK  105  A    between atoms: _268  and  _269
REMARK  106  A    between atoms: _274  and  _276
REMARK  107  A    between atoms: _276  and  _277
REMARK  108  A    between atoms: _280  and  _282
REMARK  109  A    between atoms: _282  and  _283
REMARK  110  A    between atoms: _282  and  _285
REMARK  111  A    between atoms: _288  and  _290
REMARK  112  A    between atoms: _290  and  _291
REMARK  113  A    between atoms: _290  and  _293
REMARK  114  A    between atoms: _293  and  _294
REMARK  115  A    between atoms: _297  and  _299
REMARK  116  A    between atoms: _299  and  _300
REMARK  117  A    between atoms: _299  and  _302
REMARK  118  A    between atoms: _302  and  _303
REMARK  119  A    between atoms: _303  and  _304
REMARK  120  A    between atoms: _309  and  _311
REMARK  121  A    between atoms: _311  and  _312
REMARK  122  A    between atoms: _315  and  _317
REMARK  123  A    between atoms: _317  and  _318
REMARK  124  A    between atoms: _317  and  _320
REMARK  125  A    between atoms: _320  and  _321
REMARK  126  A    between atoms: _323  and  _325
REMARK  127  A    between atoms: _325  and  _326
REMARK  128  A    between atoms: _328  and  _330
REMARK  129  A    between atoms: _330  and  _331
REMARK  130  A    between atoms: _330  and  _333
REMARK  131  A    between atoms: _333  and  _334
REMARK  132  A    between atoms: _334  and  _335
REMARK  133  A    between atoms: _340  and  _342
REMARK  134  A    between atoms: _342  and  _343
REMARK  135  A    between atoms: _346  and  _347
REMARK  136  A    between atoms: _352  and  _354
REMARK  137  A    between atoms: _354  and  _355
REMARK  138  A    between atoms: _354  and  _357
REMARK  139  A    between atoms: _357  and  _358
REMARK  140  A    between atoms: _363  and  _364
REMARK  141  A    between atoms: _366  and  _368
REMARK  142  A    between atoms: _368  and  _369
REMARK  143  A    between atoms: _368  and  _371
REMARK  144  A    between atoms: _371  and  _372
REMARK  145  A    between atoms: _377  and  _378
REMARK  146  A    between atoms: _380  and  _382
REMARK  147  A    between atoms: _382  and  _383
REMARK  148  A    between atoms: _385  and  _387
REMARK  149  A    between atoms: _387  and  _388
REMARK  150  A    between atoms: _387  and  _390
REMARK  151  A    between atoms: _390  and  _391
REMARK  152  A    between atoms: _391  and  _392
REMARK  153  A    between atoms: _397  and  _399
REMARK  154  A    between atoms: _399  and  _400
REMARK  155  A    between atoms: _403  and  _405
REMARK  156  A    between atoms: _405  and  _406
REMARK  157  A    between atoms: _409  and  _411
REMARK  158  A    between atoms: _411  and  _412
REMARK  159  A    between atoms: _411  and  _414
REMARK  160  A    between atoms: _414  and  _415
REMARK  161  A    between atoms: _425  and  _427
REMARK  162  A    between atoms: _427  and  _428
REMARK  163  A    between atoms: _427  and  _430
REMARK  164  A    between atoms: _430  and  _431
REMARK  165  A    between atoms: _437  and  _439
REMARK  166  A    between atoms: _439  and  _440
REMARK  167  A    between atoms: _439  and  _442
REMARK  168  A    between atoms: _442  and  _443
REMARK  169  A    between atoms: _448  and  _449
REMARK  170  A    between atoms: _451  and  _453
REMARK  171  A    between atoms: _453  and  _454
REMARK  172  A    between atoms: _453  and  _456
REMARK  173  A    between atoms: _456  and  _457
REMARK  174  A    between atoms: _460  and  _462
REMARK  175  A    between atoms: _462  and  _463
REMARK  176  A    between atoms: _462  and  _465
REMARK  177  A    between atoms: _465  and  _466
REMARK  178  A    between atoms: _476  and  _478
REMARK  179  A    between atoms: _478  and  _479
REMARK  180  A    between atoms: _478  and  _481
REMARK  181  A    between atoms: _481  and  _482
REMARK  182  A    between atoms: _485  and  _487
REMARK  183  A    between atoms: _487  and  _488
REMARK  184  A    between atoms: _487  and  _490
REMARK  185  A    between atoms: _490  and  _491
REMARK  186  A    between atoms: _496  and  _497
REMARK  187  A    between atoms: _499  and  _501
REMARK  188  A    between atoms: _501  and  _502
REMARK  189  A    between atoms: _501  and  _504
REMARK  190  A    between atoms: _504  and  _505
REMARK  191  A    between atoms: _511  and  _513
REMARK  192  A    between atoms: _513  and  _514
REMARK  193  A    between atoms: _517  and  _519
REMARK  194  A    between atoms: _519  and  _520
REMARK  195  A    between atoms: _519  and  _522
REMARK  196  A    between atoms: _522  and  _523
REMARK  197  A    between atoms: _525  and  _527
REMARK  198  A    between atoms: _527  and  _528
REMARK  199  A    between atoms: _530  and  _532
REMARK  200  A    between atoms: _532  and  _533
REMARK  201  A    between atoms: _532  and  _535
REMARK  202  A    between atoms: _535  and  _536
REMARK  203  A    between atoms: _536  and  _537
REMARK  204  A    between atoms: _543  and  _544
REMARK  205  A    between atoms: _549  and  _551
REMARK  206  A    between atoms: _551  and  _552
REMARK  207  A    between atoms: _551  and  _554
REMARK  208  A    between atoms: _554  and  _555
REMARK  209  A    between atoms: _560  and  _561
REMARK  210  A    between atoms: _563  and  _565
REMARK  211  A    between atoms: _565  and  _566
REMARK  212  A    between atoms: _565  and  _568
REMARK  213  A    between atoms: _568  and  _569
REMARK  214  A    between atoms: _569  and  _570
REMARK  215  A    between atoms: _570  and  _571
REMARK  216  A    between atoms: _580  and  _582
REMARK  217  A    between atoms: _582  and  _583
REMARK  218  A    between atoms: _582  and  _585
REMARK  219  A    between atoms: _585  and  _586
REMARK  220  A    between atoms: _591  and  _592
REMARK  221  A    between atoms: _594  and  _596
REMARK  222  A    between atoms: _596  and  _597
REMARK  223  A    between atoms: _596  and  _599
REMARK  224  A    between atoms: _599  and  _600
REMARK  225  A    between atoms: _600  and  _601
REMARK  226  A    between atoms: _604  and  _606
REMARK  227  A    between atoms: _606  and  _607
REMARK  228  A    between atoms: _606  and  _609
REMARK  229  A    between atoms: _609  and  _610
REMARK  230  A    between atoms: _610  and  _611
REMARK  231  A    between atoms: _611  and  _612
REMARK                            x       y       z     vdW  Elec       q    Type
REMARK                         _______ _______ _______ _____ _____    ______ ____
ROOT
ATOM      1  O   HOH     1      21.921  -3.003   6.115  0.00  0.00    +0.000 OA
ENDROOT
TORSDOF 0
REMARK  Name = ../refined-set-2016/4zb6/4zb6_pocket.pdb
REMARK  231 active torsions:
REMARK  status: ('A' for Active; 'I' for Inactive)
REMARK    1  A    between atoms: _1  and  _3
REMARK    2  A    between atoms: _3  and  _4
REMARK    3  A    between atoms: _3  and  _6
REMARK    4  A    between atoms: _6  and  _7
REMARK    5  A    between atoms: _10  and  _12
REMARK    6  A    between atoms: _12  and  _13
REMARK    7  A    between atoms: _12  and  _15
REMARK    8  A    between atoms: _15  and  _16
REMARK    9  A    between atoms: _21  and  _23
REMARK   10  A    between atoms: _23  and  _24
REMARK   11  A    between atoms: _23  and  _26
REMARK   12  A    between atoms: _26  and  _27
REMARK   13  A    between atoms: _29  and  _31
REMARK   14  A    between atoms: _31  and  _32
REMARK   15  A    between atoms: _35  and  _36
REMARK   16  A    between atoms: _41  and  _43
REMARK   17  A    between atoms: _43  and  _44
REMARK   18  A    between atoms: _43  and  _46
REMARK   19  A    between atoms: _46  and  _47
REMARK   20  A    between atoms: _52  and  _54
REMARK   21  A    between atoms: _54  and  _55
REMARK   22  A    between atoms: _57  and  _59
REMARK   23  A    between atoms: _59  and  _60
REMARK   24  A    between atoms: _59  and  _62
REMARK   25  A    between atoms: _62  and  _63
REMARK   26  A    between atoms: _73  and  _75
REMARK   27  A    between atoms: _75  and  _76
REMARK   28  A    between atoms: _75  and  _78
REMARK   29  A    between atoms: _78  and  _79
REMARK   30  A    between atoms: _79  and  _80
REMARK   31  A    between atoms: _80  and  _81
REMARK   32  A    between atoms: _81  and  _82
REMARK   33  A    between atoms: _86  and  _88
REMARK   34  A    between atoms: _88  and  _89
REMARK   35  A    between atoms: _88  and  _91
REMARK   36  A    between atoms: _94  and  _96
REMARK   37  A    between atoms: _96  and  _97
REMARK   38  A    between atoms: _96  and  _99
REMARK   39  A    between atoms: _99  and  _100
REMARK   40  A    between atoms: _103  and  _105
REMARK   41  A    between atoms: _105  and  _106
REMARK   42  A    between atoms: _105  and  _108
REMARK   43  A    between atoms: _108  and  _109
REMARK   44  A    between atoms: _112  and  _114
REMARK   45  A    between atoms: _114  and  _115
REMARK   46  A    between atoms: _114  and  _117
REMARK   47  A    between atoms: _117  and  _118
REMARK   48  A    between atoms: _118  and  _119
REMARK   49  A    between atoms: _121  and  _123
REMARK   50  A    between atoms: _123  and  _124
REMARK   51  A    between atoms: _126  and  _128
REMARK   52  A    between atoms: _128  and  _129
REMARK   53  A    between atoms: _128  and  _131
REMARK   54  A    between atoms: _131  and  _132
REMARK   55  A    between atoms: _137  and  _139
REMARK   56  A    between atoms: _139  and  _140
REMARK   57  A    between atoms: _139  and  _142
REMARK   58  A    between atoms: _142  and  _143
REMARK   59  A    between atoms: _143  and  _144
REMARK   60  A    between atoms: _144  and  _145
REMARK   61  A    between atoms: _145  and  _146
REMARK   62  A    between atoms: _150  and  _152
REMARK   63  A    between atoms: _152  and  _153
REMARK   64  A    between atoms: _152  and  _155
REMARK   65  A    between atoms: _155  and  _156
REMARK   66  A    between atoms: _161  and  _162
REMARK   67  A    between atoms: _164  and  _166
REMARK   68  A    between atoms: _166  and  _167
REMARK   69  A    between atoms: _166  and  _169
REMARK   70  A    between atoms: _169  and  _170
REMARK   71  A    between atoms: _175  and  _177
REMARK   72  A    between atoms: _177  and  _178
REMARK   73  A    between atoms: _177  and  _180
REMARK   74  A    between atoms: _180  and  _181
REMARK   75  A    between atoms: _186  and  _188
REMARK   76  A    between atoms: _188  and  _189
REMARK   77  A    between atoms: _191  and  _193
REMARK   78  A    between atoms: _193  and  _194
REMARK   79  A    between atoms: _193  and  _196
REMARK   80  A    between atoms: _196  and  _197
REMARK   81  A    between atoms: _197  and  _198
REMARK   82  A    between atoms: _198  and  _199
REMARK   83  A    between atoms: _208  and  _210
REMARK   84  A    between atoms: _210  and  _211
REMARK   85  A    between atoms: _210  and  _213
REMARK   86  A    between atoms: _217  and  _218
REMARK   87  A    between atoms: _223  and  _225
REMARK   88  A    between atoms: _225  and  _226
REMARK   89  A    between atoms: _229  and  _231
REMARK   90  A    between atoms: _231  and  _232
REMARK   91  A    between atoms: _231  and  _234
REMARK   92  A    between atoms: _234  and  _235
REMARK   93  A    between atoms: _245  and  _247
REMARK   94  A    between atoms: _247  and  _248
REMARK   95  A    between atoms: _247  and  _250
REMARK   96  A    between atoms: _250  and  _251
REMARK   97  A    between atoms: _251  and  _252
REMARK   98  A    between atoms: _255  and  _257
REMARK   99  A    between atoms: _257  and  _258
REMARK  100  A    between atoms: _257  and  _260
REMARK  101  A    between atoms: _260  and  _261
REMARK  102  A    between atoms: _263  and  _265
REMARK  103  A    between atoms: _265  and  _266
REMARK  104  A    between atoms: _265  and  _268
REMARK  105  A    between atoms: _268  and  _269
REMARK  106  A    between atoms: _274  and  _276
REMARK  107  A    between atoms: _276  and  _277
REMARK  108  A    between atoms: _280  and  _282
REMARK  109  A    between atoms: _282  and  _283
REMARK  110  A    between atoms: _282  and  _285
REMARK  111  A    between atoms: _288  and  _290
REMARK  112  A    between atoms: _290  and  _291
REMARK  113  A    between atoms: _290  and  _293
REMARK  114  A    between atoms: _293  and  _294
REMARK  115  A    between atoms: _297  and  _299
REMARK  116  A    between atoms: _299  and  _300
REMARK  117  A    between atoms: _299  and  _302
REMARK  118  A    between atoms: _302  and  _303
REMARK  119  A    between atoms: _303  and  _304
REMARK  120  A    between atoms: _309  and  _311
REMARK  121  A    between atoms: _311  and  _312
REMARK  122  A    between atoms: _315  and  _317
REMARK  123  A    between atoms: _317  and  _318
REMARK  124  A    between atoms: _317  and  _320
REMARK  125  A    between atoms: _320  and  _321
REMARK  126  A    between atoms: _323  and  _325
REMARK  127  A    between atoms: _325  and  _326
REMARK  128  A    between atoms: _328  and  _330
REMARK  129  A    between atoms: _330  and  _331
REMARK  130  A    between atoms: _330  and  _333
REMARK  131  A    between atoms: _333  and  _334
REMARK  132  A    between atoms: _334  and  _335
REMARK  133  A    between atoms: _340  and  _342
REMARK  134  A    between atoms: _342  and  _343
REMARK  135  A    between atoms: _346  and  _347
REMARK  136  A    between atoms: _352  and  _354
REMARK  137  A    between atoms: _354  and  _355
REMARK  138  A    between atoms: _354  and  _357
REMARK  139  A    between atoms: _357  and  _358
REMARK  140  A    between atoms: _363  and  _364
REMARK  141  A    between atoms: _366  and  _368
REMARK  142  A    between atoms: _368  and  _369
REMARK  143  A    between atoms: _368  and  _371
REMARK  144  A    between atoms: _371  and  _372
REMARK  145  A    between atoms: _377  and  _378
REMARK  146  A    between atoms: _380  and  _382
REMARK  147  A    between atoms: _382  and  _383
REMARK  148  A    between atoms: _385  and  _387
REMARK  149  A    between atoms: _387  and  _388
REMARK  150  A    between atoms: _387  and  _390
REMARK  151  A    between atoms: _390  and  _391
REMARK  152  A    between atoms: _391  and  _392
REMARK  153  A    between atoms: _397  and  _399
REMARK  154  A    between atoms: _399  and  _400
REMARK  155  A    between atoms: _403  and  _405
REMARK  156  A    between atoms: _405  and  _406
REMARK  157  A    between atoms: _409  and  _411
REMARK  158  A    between atoms: _411  and  _412
REMARK  159  A    between atoms: _411  and  _414
REMARK  160  A    between atoms: _414  and  _415
REMARK  161  A    between atoms: _425  and  _427
REMARK  162  A    between atoms: _427  and  _428
REMARK  163  A    between atoms: _427  and  _430
REMARK  164  A    between atoms: _430  and  _431
REMARK  165  A    between atoms: _437  and  _439
REMARK  166  A    between atoms: _439  and  _440
REMARK  167  A    between atoms: _439  and  _442
REMARK  168  A    between atoms: _442  and  _443
REMARK  169  A    between atoms: _448  and  _449
REMARK  170  A    between atoms: _451  and  _453
REMARK  171  A    between atoms: _453  and  _454
REMARK  172  A    between atoms: _453  and  _456
REMARK  173  A    between atoms: _456  and  _457
REMARK  174  A    between atoms: _460  and  _462
REMARK  175  A    between atoms: _462  and  _463
REMARK  176  A    between atoms: _462  and  _465
REMARK  177  A    between atoms: _465  and  _466
REMARK  178  A    between atoms: _476  and  _478
REMARK  179  A    between atoms: _478  and  _479
REMARK  180  A    between atoms: _478  and  _481
REMARK  181  A    between atoms: _481  and  _482
REMARK  182  A    between atoms: _485  and  _487
REMARK  183  A    between atoms: _487  and  _488
REMARK  184  A    between atoms: _487  and  _490
REMARK  185  A    between atoms: _490  and  _491
REMARK  186  A    between atoms: _496  and  _497
REMARK  187  A    between atoms: _499  and  _501
REMARK  188  A    between atoms: _501  and  _502
REMARK  189  A    between atoms: _501  and  _504
REMARK  190  A    between atoms: _504  and  _505
REMARK  191  A    between atoms: _511  and  _513
REMARK  192  A    between atoms: _513  and  _514
REMARK  193  A    between atoms: _517  and  _519
REMARK  194  A    between atoms: _519  and  _520
REMARK  195  A    between atoms: _519  and  _522
REMARK  196  A    between atoms: _522  and  _523
REMARK  197  A    between atoms: _525  and  _527
REMARK  198  A    between atoms: _527  and  _528
REMARK  199  A    between atoms: _530  and  _532
REMARK  200  A    between atoms: _532  and  _533
REMARK  201  A    between atoms: _532  and  _535
REMARK  202  A    between atoms: _535  and  _536
REMARK  203  A    between atoms: _536  and  _537
REMARK  204  A    between atoms: _543  and  _544
REMARK  205  A    between atoms: _549  and  _551
REMARK  206  A    between atoms: _551  and  _552
REMARK  207  A    between atoms: _551  and  _554
REMARK  208  A    between atoms: _554  and  _555
REMARK  209  A    between atoms: _560  and  _561
REMARK  210  A    between atoms: _563  and  _565
REMARK  211  A    between atoms: _565  and  _566
REMARK  212  A    between atoms: _565  and  _568
REMARK  213  A    between atoms: _568  and  _569
REMARK  214  A    between atoms: _569  and  _570
REMARK  215  A    between atoms: _570  and  _571
REMARK  216  A    between atoms: _580  and  _582
REMARK  217  A    between atoms: _582  and  _583
REMARK  218  A    between atoms: _582  and  _585
REMARK  219  A    between atoms: _585  and  _586
REMARK  220  A    between atoms: _591  and  _592
REMARK  221  A    between atoms: _594  and  _596
REMARK  222  A    between atoms: _596  and  _597
REMARK  223  A    between atoms: _596  and  _599
REMARK  224  A    between atoms: _599  and  _600
REMARK  225  A    between atoms: _600  and  _601
REMARK  226  A    between atoms: _604  and  _606
REMARK  227  A    between atoms: _606  and  _607
REMARK  228  A    between atoms: _606  and  _609
REMARK  229  A    between atoms: _609  and  _610
REMARK  230  A    between atoms: _610  and  _611
REMARK  231  A    between atoms: _611  and  _612
REMARK                            x       y       z     vdW  Elec       q    Type
REMARK                         _______ _______ _______ _____ _____    ______ ____
ROOT
ATOM      1  O   HOH     1      25.872  -5.740   8.334  0.00  0.00    +0.000 OA
ENDROOT
TORSDOF 0
REMARK  Name = ../refined-set-2016/4zb6/4zb6_pocket.pdb
REMARK  231 active torsions:
REMARK  status: ('A' for Active; 'I' for Inactive)
REMARK    1  A    between atoms: _1  and  _3
REMARK    2  A    between atoms: _3  and  _4
REMARK    3  A    between atoms: _3  and  _6
REMARK    4  A    between atoms: _6  and  _7
REMARK    5  A    between atoms: _10  and  _12
REMARK    6  A    between atoms: _12  and  _13
REMARK    7  A    between atoms: _12  and  _15
REMARK    8  A    between atoms: _15  and  _16
REMARK    9  A    between atoms: _21  and  _23
REMARK   10  A    between atoms: _23  and  _24
REMARK   11  A    between atoms: _23  and  _26
REMARK   12  A    between atoms: _26  and  _27
REMARK   13  A    between atoms: _29  and  _31
REMARK   14  A    between atoms: _31  and  _32
REMARK   15  A    between atoms: _35  and  _36
REMARK   16  A    between atoms: _41  and  _43
REMARK   17  A    between atoms: _43  and  _44
REMARK   18  A    between atoms: _43  and  _46
REMARK   19  A    between atoms: _46  and  _47
REMARK   20  A    between atoms: _52  and  _54
REMARK   21  A    between atoms: _54  and  _55
REMARK   22  A    between atoms: _57  and  _59
REMARK   23  A    between atoms: _59  and  _60
REMARK   24  A    between atoms: _59  and  _62
REMARK   25  A    between atoms: _62  and  _63
REMARK   26  A    between atoms: _73  and  _75
REMARK   27  A    between atoms: _75  and  _76
REMARK   28  A    between atoms: _75  and  _78
REMARK   29  A    between atoms: _78  and  _79
REMARK   30  A    between atoms: _79  and  _80
REMARK   31  A    between atoms: _80  and  _81
REMARK   32  A    between atoms: _81  and  _82
REMARK   33  A    between atoms: _86  and  _88
REMARK   34  A    between atoms: _88  and  _89
REMARK   35  A    between atoms: _88  and  _91
REMARK   36  A    between atoms: _94  and  _96
REMARK   37  A    between atoms: _96  and  _97
REMARK   38  A    between atoms: _96  and  _99
REMARK   39  A    between atoms: _99  and  _100
REMARK   40  A    between atoms: _103  and  _105
REMARK   41  A    between atoms: _105  and  _106
REMARK   42  A    between atoms: _105  and  _108
REMARK   43  A    between atoms: _108  and  _109
REMARK   44  A    between atoms: _112  and  _114
REMARK   45  A    between atoms: _114  and  _115
REMARK   46  A    between atoms: _114  and  _117
REMARK   47  A    between atoms: _117  and  _118
REMARK   48  A    between atoms: _118  and  _119
REMARK   49  A    between atoms: _121  and  _123
REMARK   50  A    between atoms: _123  and  _124
REMARK   51  A    between atoms: _126  and  _128
REMARK   52  A    between atoms: _128  and  _129
REMARK   53  A    between atoms: _128  and  _131
REMARK   54  A    between atoms: _131  and  _132
REMARK   55  A    between atoms: _137  and  _139
REMARK   56  A    between atoms: _139  and  _140
REMARK   57  A    between atoms: _139  and  _142
REMARK   58  A    between atoms: _142  and  _143
REMARK   59  A    between atoms: _143  and  _144
REMARK   60  A    between atoms: _144  and  _145
REMARK   61  A    between atoms: _145  and  _146
REMARK   62  A    between atoms: _150  and  _152
REMARK   63  A    between atoms: _152  and  _153
REMARK   64  A    between atoms: _152  and  _155
REMARK   65  A    between atoms: _155  and  _156
REMARK   66  A    between atoms: _161  and  _162
REMARK   67  A    between atoms: _164  and  _166
REMARK   68  A    between atoms: _166  and  _167
REMARK   69  A    between atoms: _166  and  _169
REMARK   70  A    between atoms: _169  and  _170
REMARK   71  A    between atoms: _175  and  _177
REMARK   72  A    between atoms: _177  and  _178
REMARK   73  A    between atoms: _177  and  _180
REMARK   74  A    between atoms: _180  and  _181
REMARK   75  A    between atoms: _186  and  _188
REMARK   76  A    between atoms: _188  and  _189
REMARK   77  A    between atoms: _191  and  _193
REMARK   78  A    between atoms: _193  and  _194
REMARK   79  A    between atoms: _193  and  _196
REMARK   80  A    between atoms: _196  and  _197
REMARK   81  A    between atoms: _197  and  _198
REMARK   82  A    between atoms: _198  and  _199
REMARK   83  A    between atoms: _208  and  _210
REMARK   84  A    between atoms: _210  and  _211
REMARK   85  A    between atoms: _210  and  _213
REMARK   86  A    between atoms: _217  and  _218
REMARK   87  A    between atoms: _223  and  _225
REMARK   88  A    between atoms: _225  and  _226
REMARK   89  A    between atoms: _229  and  _231
REMARK   90  A    between atoms: _231  and  _232
REMARK   91  A    between atoms: _231  and  _234
REMARK   92  A    between atoms: _234  and  _235
REMARK   93  A    between atoms: _245  and  _247
REMARK   94  A    between atoms: _247  and  _248
REMARK   95  A    between atoms: _247  and  _250
REMARK   96  A    between atoms: _250  and  _251
REMARK   97  A    between atoms: _251  and  _252
REMARK   98  A    between atoms: _255  and  _257
REMARK   99  A    between atoms: _257  and  _258
REMARK  100  A    between atoms: _257  and  _260
REMARK  101  A    between atoms: _260  and  _261
REMARK  102  A    between atoms: _263  and  _265
REMARK  103  A    between atoms: _265  and  _266
REMARK  104  A    between atoms: _265  and  _268
REMARK  105  A    between atoms: _268  and  _269
REMARK  106  A    between atoms: _274  and  _276
REMARK  107  A    between atoms: _276  and  _277
REMARK  108  A    between atoms: _280  and  _282
REMARK  109  A    between atoms: _282  and  _283
REMARK  110  A    between atoms: _282  and  _285
REMARK  111  A    between atoms: _288  and  _290
REMARK  112  A    between atoms: _290  and  _291
REMARK  113  A    between atoms: _290  and  _293
REMARK  114  A    between atoms: _293  and  _294
REMARK  115  A    between atoms: _297  and  _299
REMARK  116  A    between atoms: _299  and  _300
REMARK  117  A    between atoms: _299  and  _302
REMARK  118  A    between atoms: _302  and  _303
REMARK  119  A    between atoms: _303  and  _304
REMARK  120  A    between atoms: _309  and  _311
REMARK  121  A    between atoms: _311  and  _312
REMARK  122  A    between atoms: _315  and  _317
REMARK  123  A    between atoms: _317  and  _318
REMARK  124  A    between atoms: _317  and  _320
REMARK  125  A    between atoms: _320  and  _321
REMARK  126  A    between atoms: _323  and  _325
REMARK  127  A    between atoms: _325  and  _326
REMARK  128  A    between atoms: _328  and  _330
REMARK  129  A    between atoms: _330  and  _331
REMARK  130  A    between atoms: _330  and  _333
REMARK  131  A    between atoms: _333  and  _334
REMARK  132  A    between atoms: _334  and  _335
REMARK  133  A    between atoms: _340  and  _342
REMARK  134  A    between atoms: _342  and  _343
REMARK  135  A    between atoms: _346  and  _347
REMARK  136  A    between atoms: _352  and  _354
REMARK  137  A    between atoms: _354  and  _355
REMARK  138  A    between atoms: _354  and  _357
REMARK  139  A    between atoms: _357  and  _358
REMARK  140  A    between atoms: _363  and  _364
REMARK  141  A    between atoms: _366  and  _368
REMARK  142  A    between atoms: _368  and  _369
REMARK  143  A    between atoms: _368  and  _371
REMARK  144  A    between atoms: _371  and  _372
REMARK  145  A    between atoms: _377  and  _378
REMARK  146  A    between atoms: _380  and  _382
REMARK  147  A    between atoms: _382  and  _383
REMARK  148  A    between atoms: _385  and  _387
REMARK  149  A    between atoms: _387  and  _388
REMARK  150  A    between atoms: _387  and  _390
REMARK  151  A    between atoms: _390  and  _391
REMARK  152  A    between atoms: _391  and  _392
REMARK  153  A    between atoms: _397  and  _399
REMARK  154  A    between atoms: _399  and  _400
REMARK  155  A    between atoms: _403  and  _405
REMARK  156  A    between atoms: _405  and  _406
REMARK  157  A    between atoms: _409  and  _411
REMARK  158  A    between atoms: _411  and  _412
REMARK  159  A    between atoms: _411  and  _414
REMARK  160  A    between atoms: _414  and  _415
REMARK  161  A    between atoms: _425  and  _427
REMARK  162  A    between atoms: _427  and  _428
REMARK  163  A    between atoms: _427  and  _430
REMARK  164  A    between atoms: _430  and  _431
REMARK  165  A    between atoms: _437  and  _439
REMARK  166  A    between atoms: _439  and  _440
REMARK  167  A    between atoms: _439  and  _442
REMARK  168  A    between atoms: _442  and  _443
REMARK  169  A    between atoms: _448  and  _449
REMARK  170  A    between atoms: _451  and  _453
REMARK  171  A    between atoms: _453  and  _454
REMARK  172  A    between atoms: _453  and  _456
REMARK  173  A    between atoms: _456  and  _457
REMARK  174  A    between atoms: _460  and  _462
REMARK  175  A    between atoms: _462  and  _463
REMARK  176  A    between atoms: _462  and  _465
REMARK  177  A    between atoms: _465  and  _466
REMARK  178  A    between atoms: _476  and  _478
REMARK  179  A    between atoms: _478  and  _479
REMARK  180  A    between atoms: _478  and  _481
REMARK  181  A    between atoms: _481  and  _482
REMARK  182  A    between atoms: _485  and  _487
REMARK  183  A    between atoms: _487  and  _488
REMARK  184  A    between atoms: _487  and  _490
REMARK  185  A    between atoms: _490  and  _491
REMARK  186  A    between atoms: _496  and  _497
REMARK  187  A    between atoms: _499  and  _501
REMARK  188  A    between atoms: _501  and  _502
REMARK  189  A    between atoms: _501  and  _504
REMARK  190  A    between atoms: _504  and  _505
REMARK  191  A    between atoms: _511  and  _513
REMARK  192  A    between atoms: _513  and  _514
REMARK  193  A    between atoms: _517  and  _519
REMARK  194  A    between atoms: _519  and  _520
REMARK  195  A    between atoms: _519  and  _522
REMARK  196  A    between atoms: _522  and  _523
REMARK  197  A    between atoms: _525  and  _527
REMARK  198  A    between atoms: _527  and  _528
REMARK  199  A    between atoms: _530  and  _532
REMARK  200  A    between atoms: _532  and  _533
REMARK  201  A    between atoms: _532  and  _535
REMARK  202  A    between atoms: _535  and  _536
REMARK  203  A    between atoms: _536  and  _537
REMARK  204  A    between atoms: _543  and  _544
REMARK  205  A    between atoms: _549  and  _551
REMARK  206  A    between atoms: _551  and  _552
REMARK  207  A    between atoms: _551  and  _554
REMARK  208  A    between atoms: _554  and  _555
REMARK  209  A    between atoms: _560  and  _561
REMARK  210  A    between atoms: _563  and  _565
REMARK  211  A    between atoms: _565  and  _566
REMARK  212  A    between atoms: _565  and  _568
REMARK  213  A    between atoms: _568  and  _569
REMARK  214  A    between atoms: _569  and  _570
REMARK  215  A    between atoms: _570  and  _571
REMARK  216  A    between atoms: _580  and  _582
REMARK  217  A    between atoms: _582  and  _583
REMARK  218  A    between atoms: _582  and  _585
REMARK  219  A    between atoms: _585  and  _586
REMARK  220  A    between atoms: _591  and  _592
REMARK  221  A    between atoms: _594  and  _596
REMARK  222  A    between atoms: _596  and  _597
REMARK  223  A    between atoms: _596  and  _599
REMARK  224  A    between atoms: _599  and  _600
REMARK  225  A    between atoms: _600  and  _601
REMARK  226  A    between atoms: _604  and  _606
REMARK  227  A    between atoms: _606  and  _607
REMARK  228  A    between atoms: _606  and  _609
REMARK  229  A    between atoms: _609  and  _610
REMARK  230  A    between atoms: _610  and  _611
REMARK  231  A    between atoms: _611  and  _612
REMARK                            x       y       z     vdW  Elec       q    Type
REMARK                         _______ _______ _______ _____ _____    ______ ____
ROOT
ATOM      1  O   HOH     1      19.787  -1.283   7.255  0.00  0.00    +0.000 OA
ENDROOT
TORSDOF 0
REMARK  Name = ../refined-set-2016/4zb6/4zb6_pocket.pdb
REMARK  231 active torsions:
REMARK  status: ('A' for Active; 'I' for Inactive)
REMARK    1  A    between atoms: _1  and  _3
REMARK    2  A    between atoms: _3  and  _4
REMARK    3  A    between atoms: _3  and  _6
REMARK    4  A    between atoms: _6  and  _7
REMARK    5  A    between atoms: _10  and  _12
REMARK    6  A    between atoms: _12  and  _13
REMARK    7  A    between atoms: _12  and  _15
REMARK    8  A    between atoms: _15  and  _16
REMARK    9  A    between atoms: _21  and  _23
REMARK   10  A    between atoms: _23  and  _24
REMARK   11  A    between atoms: _23  and  _26
REMARK   12  A    between atoms: _26  and  _27
REMARK   13  A    between atoms: _29  and  _31
REMARK   14  A    between atoms: _31  and  _32
REMARK   15  A    between atoms: _35  and  _36
REMARK   16  A    between atoms: _41  and  _43
REMARK   17  A    between atoms: _43  and  _44
REMARK   18  A    between atoms: _43  and  _46
REMARK   19  A    between atoms: _46  and  _47
REMARK   20  A    between atoms: _52  and  _54
REMARK   21  A    between atoms: _54  and  _55
REMARK   22  A    between atoms: _57  and  _59
REMARK   23  A    between atoms: _59  and  _60
REMARK   24  A    between atoms: _59  and  _62
REMARK   25  A    between atoms: _62  and  _63
REMARK   26  A    between atoms: _73  and  _75
REMARK   27  A    between atoms: _75  and  _76
REMARK   28  A    between atoms: _75  and  _78
REMARK   29  A    between atoms: _78  and  _79
REMARK   30  A    between atoms: _79  and  _80
REMARK   31  A    between atoms: _80  and  _81
REMARK   32  A    between atoms: _81  and  _82
REMARK   33  A    between atoms: _86  and  _88
REMARK   34  A    between atoms: _88  and  _89
REMARK   35  A    between atoms: _88  and  _91
REMARK   36  A    between atoms: _94  and  _96
REMARK   37  A    between atoms: _96  and  _97
REMARK   38  A    between atoms: _96  and  _99
REMARK   39  A    between atoms: _99  and  _100
REMARK   40  A    between atoms: _103  and  _105
REMARK   41  A    between atoms: _105  and  _106
REMARK   42  A    between atoms: _105  and  _108
REMARK   43  A    between atoms: _108  and  _109
REMARK   44  A    between atoms: _112  and  _114
REMARK   45  A    between atoms: _114  and  _115
REMARK   46  A    between atoms: _114  and  _117
REMARK   47  A    between atoms: _117  and  _118
REMARK   48  A    between atoms: _118  and  _119
REMARK   49  A    between atoms: _121  and  _123
REMARK   50  A    between atoms: _123  and  _124
REMARK   51  A    between atoms: _126  and  _128
REMARK   52  A    between atoms: _128  and  _129
REMARK   53  A    between atoms: _128  and  _131
REMARK   54  A    between atoms: _131  and  _132
REMARK   55  A    between atoms: _137  and  _139
REMARK   56  A    between atoms: _139  and  _140
REMARK   57  A    between atoms: _139  and  _142
REMARK   58  A    between atoms: _142  and  _143
REMARK   59  A    between atoms: _143  and  _144
REMARK   60  A    between atoms: _144  and  _145
REMARK   61  A    between atoms: _145  and  _146
REMARK   62  A    between atoms: _150  and  _152
REMARK   63  A    between atoms: _152  and  _153
REMARK   64  A    between atoms: _152  and  _155
REMARK   65  A    between atoms: _155  and  _156
REMARK   66  A    between atoms: _161  and  _162
REMARK   67  A    between atoms: _164  and  _166
REMARK   68  A    between atoms: _166  and  _167
REMARK   69  A    between atoms: _166  and  _169
REMARK   70  A    between atoms: _169  and  _170
REMARK   71  A    between atoms: _175  and  _177
REMARK   72  A    between atoms: _177  and  _178
REMARK   73  A    between atoms: _177  and  _180
REMARK   74  A    between atoms: _180  and  _181
REMARK   75  A    between atoms: _186  and  _188
REMARK   76  A    between atoms: _188  and  _189
REMARK   77  A    between atoms: _191  and  _193
REMARK   78  A    between atoms: _193  and  _194
REMARK   79  A    between atoms: _193  and  _196
REMARK   80  A    between atoms: _196  and  _197
REMARK   81  A    between atoms: _197  and  _198
REMARK   82  A    between atoms: _198  and  _199
REMARK   83  A    between atoms: _208  and  _210
REMARK   84  A    between atoms: _210  and  _211
REMARK   85  A    between atoms: _210  and  _213
REMARK   86  A    between atoms: _217  and  _218
REMARK   87  A    between atoms: _223  and  _225
REMARK   88  A    between atoms: _225  and  _226
REMARK   89  A    between atoms: _229  and  _231
REMARK   90  A    between atoms: _231  and  _232
REMARK   91  A    between atoms: _231  and  _234
REMARK   92  A    between atoms: _234  and  _235
REMARK   93  A    between atoms: _245  and  _247
REMARK   94  A    between atoms: _247  and  _248
REMARK   95  A    between atoms: _247  and  _250
REMARK   96  A    between atoms: _250  and  _251
REMARK   97  A    between atoms: _251  and  _252
REMARK   98  A    between atoms: _255  and  _257
REMARK   99  A    between atoms: _257  and  _258
REMARK  100  A    between atoms: _257  and  _260
REMARK  101  A    between atoms: _260  and  _261
REMARK  102  A    between atoms: _263  and  _265
REMARK  103  A    between atoms: _265  and  _266
REMARK  104  A    between atoms: _265  and  _268
REMARK  105  A    between atoms: _268  and  _269
REMARK  106  A    between atoms: _274  and  _276
REMARK  107  A    between atoms: _276  and  _277
REMARK  108  A    between atoms: _280  and  _282
REMARK  109  A    between atoms: _282  and  _283
REMARK  110  A    between atoms: _282  and  _285
REMARK  111  A    between atoms: _288  and  _290
REMARK  112  A    between atoms: _290  and  _291
REMARK  113  A    between atoms: _290  and  _293
REMARK  114  A    between atoms: _293  and  _294
REMARK  115  A    between atoms: _297  and  _299
REMARK  116  A    between atoms: _299  and  _300
REMARK  117  A    between atoms: _299  and  _302
REMARK  118  A    between atoms: _302  and  _303
REMARK  119  A    between atoms: _303  and  _304
REMARK  120  A    between atoms: _309  and  _311
REMARK  121  A    between atoms: _311  and  _312
REMARK  122  A    between atoms: _315  and  _317
REMARK  123  A    between atoms: _317  and  _318
REMARK  124  A    between atoms: _317  and  _320
REMARK  125  A    between atoms: _320  and  _321
REMARK  126  A    between atoms: _323  and  _325
REMARK  127  A    between atoms: _325  and  _326
REMARK  128  A    between atoms: _328  and  _330
REMARK  129  A    between atoms: _330  and  _331
REMARK  130  A    between atoms: _330  and  _333
REMARK  131  A    between atoms: _333  and  _334
REMARK  132  A    between atoms: _334  and  _335
REMARK  133  A    between atoms: _340  and  _342
REMARK  134  A    between atoms: _342  and  _343
REMARK  135  A    between atoms: _346  and  _347
REMARK  136  A    between atoms: _352  and  _354
REMARK  137  A    between atoms: _354  and  _355
REMARK  138  A    between atoms: _354  and  _357
REMARK  139  A    between atoms: _357  and  _358
REMARK  140  A    between atoms: _363  and  _364
REMARK  141  A    between atoms: _366  and  _368
REMARK  142  A    between atoms: _368  and  _369
REMARK  143  A    between atoms: _368  and  _371
REMARK  144  A    between atoms: _371  and  _372
REMARK  145  A    between atoms: _377  and  _378
REMARK  146  A    between atoms: _380  and  _382
REMARK  147  A    between atoms: _382  and  _383
REMARK  148  A    between atoms: _385  and  _387
REMARK  149  A    between atoms: _387  and  _388
REMARK  150  A    between atoms: _387  and  _390
REMARK  151  A    between atoms: _390  and  _391
REMARK  152  A    between atoms: _391  and  _392
REMARK  153  A    between atoms: _397  and  _399
REMARK  154  A    between atoms: _399  and  _400
REMARK  155  A    between atoms: _403  and  _405
REMARK  156  A    between atoms: _405  and  _406
REMARK  157  A    between atoms: _409  and  _411
REMARK  158  A    between atoms: _411  and  _412
REMARK  159  A    between atoms: _411  and  _414
REMARK  160  A    between atoms: _414  and  _415
REMARK  161  A    between atoms: _425  and  _427
REMARK  162  A    between atoms: _427  and  _428
REMARK  163  A    between atoms: _427  and  _430
REMARK  164  A    between atoms: _430  and  _431
REMARK  165  A    between atoms: _437  and  _439
REMARK  166  A    between atoms: _439  and  _440
REMARK  167  A    between atoms: _439  and  _442
REMARK  168  A    between atoms: _442  and  _443
REMARK  169  A    between atoms: _448  and  _449
REMARK  170  A    between atoms: _451  and  _453
REMARK  171  A    between atoms: _453  and  _454
REMARK  172  A    between atoms: _453  and  _456
REMARK  173  A    between atoms: _456  and  _457
REMARK  174  A    between atoms: _460  and  _462
REMARK  175  A    between atoms: _462  and  _463
REMARK  176  A    between atoms: _462  and  _465
REMARK  177  A    between atoms: _465  and  _466
REMARK  178  A    between atoms: _476  and  _478
REMARK  179  A    between atoms: _478  and  _479
REMARK  180  A    between atoms: _478  and  _481
REMARK  181  A    between atoms: _481  and  _482
REMARK  182  A    between atoms: _485  and  _487
REMARK  183  A    between atoms: _487  and  _488
REMARK  184  A    between atoms: _487  and  _490
REMARK  185  A    between atoms: _490  and  _491
REMARK  186  A    between atoms: _496  and  _497
REMARK  187  A    between atoms: _499  and  _501
REMARK  188  A    between atoms: _501  and  _502
REMARK  189  A    between atoms: _501  and  _504
REMARK  190  A    between atoms: _504  and  _505
REMARK  191  A    between atoms: _511  and  _513
REMARK  192  A    between atoms: _513  and  _514
REMARK  193  A    between atoms: _517  and  _519
REMARK  194  A    between atoms: _519  and  _520
REMARK  195  A    between atoms: _519  and  _522
REMARK  196  A    between atoms: _522  and  _523
REMARK  197  A    between atoms: _525  and  _527
REMARK  198  A    between atoms: _527  and  _528
REMARK  199  A    between atoms: _530  and  _532
REMARK  200  A    between atoms: _532  and  _533
REMARK  201  A    between atoms: _532  and  _535
REMARK  202  A    between atoms: _535  and  _536
REMARK  203  A    between atoms: _536  and  _537
REMARK  204  A    between atoms: _543  and  _544
REMARK  205  A    between atoms: _549  and  _551
REMARK  206  A    between atoms: _551  and  _552
REMARK  207  A    between atoms: _551  and  _554
REMARK  208  A    between atoms: _554  and  _555
REMARK  209  A    between atoms: _560  and  _561
REMARK  210  A    between atoms: _563  and  _565
REMARK  211  A    between atoms: _565  and  _566
REMARK  212  A    between atoms: _565  and  _568
REMARK  213  A    between atoms: _568  and  _569
REMARK  214  A    between atoms: _569  and  _570
REMARK  215  A    between atoms: _570  and  _571
REMARK  216  A    between atoms: _580  and  _582
REMARK  217  A    between atoms: _582  and  _583
REMARK  218  A    between atoms: _582  and  _585
REMARK  219  A    between atoms: _585  and  _586
REMARK  220  A    between atoms: _591  and  _592
REMARK  221  A    between atoms: _594  and  _596
REMARK  222  A    between atoms: _596  and  _597
REMARK  223  A    between atoms: _596  and  _599
REMARK  224  A    between atoms: _599  and  _600
REMARK  225  A    between atoms: _600  and  _601
REMARK  226  A    between atoms: _604  and  _606
REMARK  227  A    between atoms: _606  and  _607
REMARK  228  A    between atoms: _606  and  _609
REMARK  229  A    between atoms: _609  and  _610
REMARK  230  A    between atoms: _610  and  _611
REMARK  231  A    between atoms: _611  and  _612
REMARK                            x       y       z     vdW  Elec       q    Type
REMARK                         _______ _______ _______ _____ _____    ______ ____
ROOT
ATOM      1  O   HOH     1      20.829   0.199   3.568  0.00  0.00    +0.000 OA
ENDROOT
TORSDOF 0
REMARK  Name = ../refined-set-2016/4zb6/4zb6_pocket.pdb
REMARK  231 active torsions:
REMARK  status: ('A' for Active; 'I' for Inactive)
REMARK    1  A    between atoms: _1  and  _3
REMARK    2  A    between atoms: _3  and  _4
REMARK    3  A    between atoms: _3  and  _6
REMARK    4  A    between atoms: _6  and  _7
REMARK    5  A    between atoms: _10  and  _12
REMARK    6  A    between atoms: _12  and  _13
REMARK    7  A    between atoms: _12  and  _15
REMARK    8  A    between atoms: _15  and  _16
REMARK    9  A    between atoms: _21  and  _23
REMARK   10  A    between atoms: _23  and  _24
REMARK   11  A    between atoms: _23  and  _26
REMARK   12  A    between atoms: _26  and  _27
REMARK   13  A    between atoms: _29  and  _31
REMARK   14  A    between atoms: _31  and  _32
REMARK   15  A    between atoms: _35  and  _36
REMARK   16  A    between atoms: _41  and  _43
REMARK   17  A    between atoms: _43  and  _44
REMARK   18  A    between atoms: _43  and  _46
REMARK   19  A    between atoms: _46  and  _47
REMARK   20  A    between atoms: _52  and  _54
REMARK   21  A    between atoms: _54  and  _55
REMARK   22  A    between atoms: _57  and  _59
REMARK   23  A    between atoms: _59  and  _60
REMARK   24  A    between atoms: _59  and  _62
REMARK   25  A    between atoms: _62  and  _63
REMARK   26  A    between atoms: _73  and  _75
REMARK   27  A    between atoms: _75  and  _76
REMARK   28  A    between atoms: _75  and  _78
REMARK   29  A    between atoms: _78  and  _79
REMARK   30  A    between atoms: _79  and  _80
REMARK   31  A    between atoms: _80  and  _81
REMARK   32  A    between atoms: _81  and  _82
REMARK   33  A    between atoms: _86  and  _88
REMARK   34  A    between atoms: _88  and  _89
REMARK   35  A    between atoms: _88  and  _91
REMARK   36  A    between atoms: _94  and  _96
REMARK   37  A    between atoms: _96  and  _97
REMARK   38  A    between atoms: _96  and  _99
REMARK   39  A    between atoms: _99  and  _100
REMARK   40  A    between atoms: _103  and  _105
REMARK   41  A    between atoms: _105  and  _106
REMARK   42  A    between atoms: _105  and  _108
REMARK   43  A    between atoms: _108  and  _109
REMARK   44  A    between atoms: _112  and  _114
REMARK   45  A    between atoms: _114  and  _115
REMARK   46  A    between atoms: _114  and  _117
REMARK   47  A    between atoms: _117  and  _118
REMARK   48  A    between atoms: _118  and  _119
REMARK   49  A    between atoms: _121  and  _123
REMARK   50  A    between atoms: _123  and  _124
REMARK   51  A    between atoms: _126  and  _128
REMARK   52  A    between atoms: _128  and  _129
REMARK   53  A    between atoms: _128  and  _131
REMARK   54  A    between atoms: _131  and  _132
REMARK   55  A    between atoms: _137  and  _139
REMARK   56  A    between atoms: _139  and  _140
REMARK   57  A    between atoms: _139  and  _142
REMARK   58  A    between atoms: _142  and  _143
REMARK   59  A    between atoms: _143  and  _144
REMARK   60  A    between atoms: _144  and  _145
REMARK   61  A    between atoms: _145  and  _146
REMARK   62  A    between atoms: _150  and  _152
REMARK   63  A    between atoms: _152  and  _153
REMARK   64  A    between atoms: _152  and  _155
REMARK   65  A    between atoms: _155  and  _156
REMARK   66  A    between atoms: _161  and  _162
REMARK   67  A    between atoms: _164  and  _166
REMARK   68  A    between atoms: _166  and  _167
REMARK   69  A    between atoms: _166  and  _169
REMARK   70  A    between atoms: _169  and  _170
REMARK   71  A    between atoms: _175  and  _177
REMARK   72  A    between atoms: _177  and  _178
REMARK   73  A    between atoms: _177  and  _180
REMARK   74  A    between atoms: _180  and  _181
REMARK   75  A    between atoms: _186  and  _188
REMARK   76  A    between atoms: _188  and  _189
REMARK   77  A    between atoms: _191  and  _193
REMARK   78  A    between atoms: _193  and  _194
REMARK   79  A    between atoms: _193  and  _196
REMARK   80  A    between atoms: _196  and  _197
REMARK   81  A    between atoms: _197  and  _198
REMARK   82  A    between atoms: _198  and  _199
REMARK   83  A    between atoms: _208  and  _210
REMARK   84  A    between atoms: _210  and  _211
REMARK   85  A    between atoms: _210  and  _213
REMARK   86  A    between atoms: _217  and  _218
REMARK   87  A    between atoms: _223  and  _225
REMARK   88  A    between atoms: _225  and  _226
REMARK   89  A    between atoms: _229  and  _231
REMARK   90  A    between atoms: _231  and  _232
REMARK   91  A    between atoms: _231  and  _234
REMARK   92  A    between atoms: _234  and  _235
REMARK   93  A    between atoms: _245  and  _247
REMARK   94  A    between atoms: _247  and  _248
REMARK   95  A    between atoms: _247  and  _250
REMARK   96  A    between atoms: _250  and  _251
REMARK   97  A    between atoms: _251  and  _252
REMARK   98  A    between atoms: _255  and  _257
REMARK   99  A    between atoms: _257  and  _258
REMARK  100  A    between atoms: _257  and  _260
REMARK  101  A    between atoms: _260  and  _261
REMARK  102  A    between atoms: _263  and  _265
REMARK  103  A    between atoms: _265  and  _266
REMARK  104  A    between atoms: _265  and  _268
REMARK  105  A    between atoms: _268  and  _269
REMARK  106  A    between atoms: _274  and  _276
REMARK  107  A    between atoms: _276  and  _277
REMARK  108  A    between atoms: _280  and  _282
REMARK  109  A    between atoms: _282  and  _283
REMARK  110  A    between atoms: _282  and  _285
REMARK  111  A    between atoms: _288  and  _290
REMARK  112  A    between atoms: _290  and  _291
REMARK  113  A    between atoms: _290  and  _293
REMARK  114  A    between atoms: _293  and  _294
REMARK  115  A    between atoms: _297  and  _299
REMARK  116  A    between atoms: _299  and  _300
REMARK  117  A    between atoms: _299  and  _302
REMARK  118  A    between atoms: _302  and  _303
REMARK  119  A    between atoms: _303  and  _304
REMARK  120  A    between atoms: _309  and  _311
REMARK  121  A    between atoms: _311  and  _312
REMARK  122  A    between atoms: _315  and  _317
REMARK  123  A    between atoms: _317  and  _318
REMARK  124  A    between atoms: _317  and  _320
REMARK  125  A    between atoms: _320  and  _321
REMARK  126  A    between atoms: _323  and  _325
REMARK  127  A    between atoms: _325  and  _326
REMARK  128  A    between atoms: _328  and  _330
REMARK  129  A    between atoms: _330  and  _331
REMARK  130  A    between atoms: _330  and  _333
REMARK  131  A    between atoms: _333  and  _334
REMARK  132  A    between atoms: _334  and  _335
REMARK  133  A    between atoms: _340  and  _342
REMARK  134  A    between atoms: _342  and  _343
REMARK  135  A    between atoms: _346  and  _347
REMARK  136  A    between atoms: _352  and  _354
REMARK  137  A    between atoms: _354  and  _355
REMARK  138  A    between atoms: _354  and  _357
REMARK  139  A    between atoms: _357  and  _358
REMARK  140  A    between atoms: _363  and  _364
REMARK  141  A    between atoms: _366  and  _368
REMARK  142  A    between atoms: _368  and  _369
REMARK  143  A    between atoms: _368  and  _371
REMARK  144  A    between atoms: _371  and  _372
REMARK  145  A    between atoms: _377  and  _378
REMARK  146  A    between atoms: _380  and  _382
REMARK  147  A    between atoms: _382  and  _383
REMARK  148  A    between atoms: _385  and  _387
REMARK  149  A    between atoms: _387  and  _388
REMARK  150  A    between atoms: _387  and  _390
REMARK  151  A    between atoms: _390  and  _391
REMARK  152  A    between atoms: _391  and  _392
REMARK  153  A    between atoms: _397  and  _399
REMARK  154  A    between atoms: _399  and  _400
REMARK  155  A    between atoms: _403  and  _405
REMARK  156  A    between atoms: _405  and  _406
REMARK  157  A    between atoms: _409  and  _411
REMARK  158  A    between atoms: _411  and  _412
REMARK  159  A    between atoms: _411  and  _414
REMARK  160  A    between atoms: _414  and  _415
REMARK  161  A    between atoms: _425  and  _427
REMARK  162  A    between atoms: _427  and  _428
REMARK  163  A    between atoms: _427  and  _430
REMARK  164  A    between atoms: _430  and  _431
REMARK  165  A    between atoms: _437  and  _439
REMARK  166  A    between atoms: _439  and  _440
REMARK  167  A    between atoms: _439  and  _442
REMARK  168  A    between atoms: _442  and  _443
REMARK  169  A    between atoms: _448  and  _449
REMARK  170  A    between atoms: _451  and  _453
REMARK  171  A    between atoms: _453  and  _454
REMARK  172  A    between atoms: _453  and  _456
REMARK  173  A    between atoms: _456  and  _457
REMARK  174  A    between atoms: _460  and  _462
REMARK  175  A    between atoms: _462  and  _463
REMARK  176  A    between atoms: _462  and  _465
REMARK  177  A    between atoms: _465  and  _466
REMARK  178  A    between atoms: _476  and  _478
REMARK  179  A    between atoms: _478  and  _479
REMARK  180  A    between atoms: _478  and  _481
REMARK  181  A    between atoms: _481  and  _482
REMARK  182  A    between atoms: _485  and  _487
REMARK  183  A    between atoms: _487  and  _488
REMARK  184  A    between atoms: _487  and  _490
REMARK  185  A    between atoms: _490  and  _491
REMARK  186  A    between atoms: _496  and  _497
REMARK  187  A    between atoms: _499  and  _501
REMARK  188  A    between atoms: _501  and  _502
REMARK  189  A    between atoms: _501  and  _504
REMARK  190  A    between atoms: _504  and  _505
REMARK  191  A    between atoms: _511  and  _513
REMARK  192  A    between atoms: _513  and  _514
REMARK  193  A    between atoms: _517  and  _519
REMARK  194  A    between atoms: _519  and  _520
REMARK  195  A    between atoms: _519  and  _522
REMARK  196  A    between atoms: _522  and  _523
REMARK  197  A    between atoms: _525  and  _527
REMARK  198  A    between atoms: _527  and  _528
REMARK  199  A    between atoms: _530  and  _532
REMARK  200  A    between atoms: _532  and  _533
REMARK  201  A    between atoms: _532  and  _535
REMARK  202  A    between atoms: _535  and  _536
REMARK  203  A    between atoms: _536  and  _537
REMARK  204  A    between atoms: _543  and  _544
REMARK  205  A    between atoms: _549  and  _551
REMARK  206  A    between atoms: _551  and  _552
REMARK  207  A    between atoms: _551  and  _554
REMARK  208  A    between atoms: _554  and  _555
REMARK  209  A    between atoms: _560  and  _561
REMARK  210  A    between atoms: _563  and  _565
REMARK  211  A    between atoms: _565  and  _566
REMARK  212  A    between atoms: _565  and  _568
REMARK  213  A    between atoms: _568  and  _569
REMARK  214  A    between atoms: _569  and  _570
REMARK  215  A    between atoms: _570  and  _571
REMARK  216  A    between atoms: _580  and  _582
REMARK  217  A    between atoms: _582  and  _583
REMARK  218  A    between atoms: _582  and  _585
REMARK  219  A    between atoms: _585  and  _586
REMARK  220  A    between atoms: _591  and  _592
REMARK  221  A    between atoms: _594  and  _596
REMARK  222  A    between atoms: _596  and  _597
REMARK  223  A    between atoms: _596  and  _599
REMARK  224  A    between atoms: _599  and  _600
REMARK  225  A    between atoms: _600  and  _601
REMARK  226  A    between atoms: _604  and  _606
REMARK  227  A    between atoms: _606  and  _607
REMARK  228  A    between atoms: _606  and  _609
REMARK  229  A    between atoms: _609  and  _610
REMARK  230  A    between atoms: _610  and  _611
REMARK  231  A    between atoms: _611  and  _612
REMARK                            x       y       z     vdW  Elec       q    Type
REMARK                         _______ _______ _______ _____ _____    ______ ____
ROOT
ATOM      1  O   HOH     1      31.616  -7.026  16.400  0.00  0.00    +0.000 OA
ENDROOT
TORSDOF 0
REMARK  Name = ../refined-set-2016/4zb6/4zb6_pocket.pdb
REMARK  231 active torsions:
REMARK  status: ('A' for Active; 'I' for Inactive)
REMARK    1  A    between atoms: _1  and  _3
REMARK    2  A    between atoms: _3  and  _4
REMARK    3  A    between atoms: _3  and  _6
REMARK    4  A    between atoms: _6  and  _7
REMARK    5  A    between atoms: _10  and  _12
REMARK    6  A    between atoms: _12  and  _13
REMARK    7  A    between atoms: _12  and  _15
REMARK    8  A    between atoms: _15  and  _16
REMARK    9  A    between atoms: _21  and  _23
REMARK   10  A    between atoms: _23  and  _24
REMARK   11  A    between atoms: _23  and  _26
REMARK   12  A    between atoms: _26  and  _27
REMARK   13  A    between atoms: _29  and  _31
REMARK   14  A    between atoms: _31  and  _32
REMARK   15  A    between atoms: _35  and  _36
REMARK   16  A    between atoms: _41  and  _43
REMARK   17  A    between atoms: _43  and  _44
REMARK   18  A    between atoms: _43  and  _46
REMARK   19  A    between atoms: _46  and  _47
REMARK   20  A    between atoms: _52  and  _54
REMARK   21  A    between atoms: _54  and  _55
REMARK   22  A    between atoms: _57  and  _59
REMARK   23  A    between atoms: _59  and  _60
REMARK   24  A    between atoms: _59  and  _62
REMARK   25  A    between atoms: _62  and  _63
REMARK   26  A    between atoms: _73  and  _75
REMARK   27  A    between atoms: _75  and  _76
REMARK   28  A    between atoms: _75  and  _78
REMARK   29  A    between atoms: _78  and  _79
REMARK   30  A    between atoms: _79  and  _80
REMARK   31  A    between atoms: _80  and  _81
REMARK   32  A    between atoms: _81  and  _82
REMARK   33  A    between atoms: _86  and  _88
REMARK   34  A    between atoms: _88  and  _89
REMARK   35  A    between atoms: _88  and  _91
REMARK   36  A    between atoms: _94  and  _96
REMARK   37  A    between atoms: _96  and  _97
REMARK   38  A    between atoms: _96  and  _99
REMARK   39  A    between atoms: _99  and  _100
REMARK   40  A    between atoms: _103  and  _105
REMARK   41  A    between atoms: _105  and  _106
REMARK   42  A    between atoms: _105  and  _108
REMARK   43  A    between atoms: _108  and  _109
REMARK   44  A    between atoms: _112  and  _114
REMARK   45  A    between atoms: _114  and  _115
REMARK   46  A    between atoms: _114  and  _117
REMARK   47  A    between atoms: _117  and  _118
REMARK   48  A    between atoms: _118  and  _119
REMARK   49  A    between atoms: _121  and  _123
REMARK   50  A    between atoms: _123  and  _124
REMARK   51  A    between atoms: _126  and  _128
REMARK   52  A    between atoms: _128  and  _129
REMARK   53  A    between atoms: _128  and  _131
REMARK   54  A    between atoms: _131  and  _132
REMARK   55  A    between atoms: _137  and  _139
REMARK   56  A    between atoms: _139  and  _140
REMARK   57  A    between atoms: _139  and  _142
REMARK   58  A    between atoms: _142  and  _143
REMARK   59  A    between atoms: _143  and  _144
REMARK   60  A    between atoms: _144  and  _145
REMARK   61  A    between atoms: _145  and  _146
REMARK   62  A    between atoms: _150  and  _152
REMARK   63  A    between atoms: _152  and  _153
REMARK   64  A    between atoms: _152  and  _155
REMARK   65  A    between atoms: _155  and  _156
REMARK   66  A    between atoms: _161  and  _162
REMARK   67  A    between atoms: _164  and  _166
REMARK   68  A    between atoms: _166  and  _167
REMARK   69  A    between atoms: _166  and  _169
REMARK   70  A    between atoms: _169  and  _170
REMARK   71  A    between atoms: _175  and  _177
REMARK   72  A    between atoms: _177  and  _178
REMARK   73  A    between atoms: _177  and  _180
REMARK   74  A    between atoms: _180  and  _181
REMARK   75  A    between atoms: _186  and  _188
REMARK   76  A    between atoms: _188  and  _189
REMARK   77  A    between atoms: _191  and  _193
REMARK   78  A    between atoms: _193  and  _194
REMARK   79  A    between atoms: _193  and  _196
REMARK   80  A    between atoms: _196  and  _197
REMARK   81  A    between atoms: _197  and  _198
REMARK   82  A    between atoms: _198  and  _199
REMARK   83  A    between atoms: _208  and  _210
REMARK   84  A    between atoms: _210  and  _211
REMARK   85  A    between atoms: _210  and  _213
REMARK   86  A    between atoms: _217  and  _218
REMARK   87  A    between atoms: _223  and  _225
REMARK   88  A    between atoms: _225  and  _226
REMARK   89  A    between atoms: _229  and  _231
REMARK   90  A    between atoms: _231  and  _232
REMARK   91  A    between atoms: _231  and  _234
REMARK   92  A    between atoms: _234  and  _235
REMARK   93  A    between atoms: _245  and  _247
REMARK   94  A    between atoms: _247  and  _248
REMARK   95  A    between atoms: _247  and  _250
REMARK   96  A    between atoms: _250  and  _251
REMARK   97  A    between atoms: _251  and  _252
REMARK   98  A    between atoms: _255  and  _257
REMARK   99  A    between atoms: _257  and  _258
REMARK  100  A    between atoms: _257  and  _260
REMARK  101  A    between atoms: _260  and  _261
REMARK  102  A    between atoms: _263  and  _265
REMARK  103  A    between atoms: _265  and  _266
REMARK  104  A    between atoms: _265  and  _268
REMARK  105  A    between atoms: _268  and  _269
REMARK  106  A    between atoms: _274  and  _276
REMARK  107  A    between atoms: _276  and  _277
REMARK  108  A    between atoms: _280  and  _282
REMARK  109  A    between atoms: _282  and  _283
REMARK  110  A    between atoms: _282  and  _285
REMARK  111  A    between atoms: _288  and  _290
REMARK  112  A    between atoms: _290  and  _291
REMARK  113  A    between atoms: _290  and  _293
REMARK  114  A    between atoms: _293  and  _294
REMARK  115  A    between atoms: _297  and  _299
REMARK  116  A    between atoms: _299  and  _300
REMARK  117  A    between atoms: _299  and  _302
REMARK  118  A    between atoms: _302  and  _303
REMARK  119  A    between atoms: _303  and  _304
REMARK  120  A    between atoms: _309  and  _311
REMARK  121  A    between atoms: _311  and  _312
REMARK  122  A    between atoms: _315  and  _317
REMARK  123  A    between atoms: _317  and  _318
REMARK  124  A    between atoms: _317  and  _320
REMARK  125  A    between atoms: _320  and  _321
REMARK  126  A    between atoms: _323  and  _325
REMARK  127  A    between atoms: _325  and  _326
REMARK  128  A    between atoms: _328  and  _330
REMARK  129  A    between atoms: _330  and  _331
REMARK  130  A    between atoms: _330  and  _333
REMARK  131  A    between atoms: _333  and  _334
REMARK  132  A    between atoms: _334  and  _335
REMARK  133  A    between atoms: _340  and  _342
REMARK  134  A    between atoms: _342  and  _343
REMARK  135  A    between atoms: _346  and  _347
REMARK  136  A    between atoms: _352  and  _354
REMARK  137  A    between atoms: _354  and  _355
REMARK  138  A    between atoms: _354  and  _357
REMARK  139  A    between atoms: _357  and  _358
REMARK  140  A    between atoms: _363  and  _364
REMARK  141  A    between atoms: _366  and  _368
REMARK  142  A    between atoms: _368  and  _369
REMARK  143  A    between atoms: _368  and  _371
REMARK  144  A    between atoms: _371  and  _372
REMARK  145  A    between atoms: _377  and  _378
REMARK  146  A    between atoms: _380  and  _382
REMARK  147  A    between atoms: _382  and  _383
REMARK  148  A    between atoms: _385  and  _387
REMARK  149  A    between atoms: _387  and  _388
REMARK  150  A    between atoms: _387  and  _390
REMARK  151  A    between atoms: _390  and  _391
REMARK  152  A    between atoms: _391  and  _392
REMARK  153  A    between atoms: _397  and  _399
REMARK  154  A    between atoms: _399  and  _400
REMARK  155  A    between atoms: _403  and  _405
REMARK  156  A    between atoms: _405  and  _406
REMARK  157  A    between atoms: _409  and  _411
REMARK  158  A    between atoms: _411  and  _412
REMARK  159  A    between atoms: _411  and  _414
REMARK  160  A    between atoms: _414  and  _415
REMARK  161  A    between atoms: _425  and  _427
REMARK  162  A    between atoms: _427  and  _428
REMARK  163  A    between atoms: _427  and  _430
REMARK  164  A    between atoms: _430  and  _431
REMARK  165  A    between atoms: _437  and  _439
REMARK  166  A    between atoms: _439  and  _440
REMARK  167  A    between atoms: _439  and  _442
REMARK  168  A    between atoms: _442  and  _443
REMARK  169  A    between atoms: _448  and  _449
REMARK  170  A    between atoms: _451  and  _453
REMARK  171  A    between atoms: _453  and  _454
REMARK  172  A    between atoms: _453  and  _456
REMARK  173  A    between atoms: _456  and  _457
REMARK  174  A    between atoms: _460  and  _462
REMARK  175  A    between atoms: _462  and  _463
REMARK  176  A    between atoms: _462  and  _465
REMARK  177  A    between atoms: _465  and  _466
REMARK  178  A    between atoms: _476  and  _478
REMARK  179  A    between atoms: _478  and  _479
REMARK  180  A    between atoms: _478  and  _481
REMARK  181  A    between atoms: _481  and  _482
REMARK  182  A    between atoms: _485  and  _487
REMARK  183  A    between atoms: _487  and  _488
REMARK  184  A    between atoms: _487  and  _490
REMARK  185  A    between atoms: _490  and  _491
REMARK  186  A    between atoms: _496  and  _497
REMARK  187  A    between atoms: _499  and  _501
REMARK  188  A    between atoms: _501  and  _502
REMARK  189  A    between atoms: _501  and  _504
REMARK  190  A    between atoms: _504  and  _505
REMARK  191  A    between atoms: _511  and  _513
REMARK  192  A    between atoms: _513  and  _514
REMARK  193  A    between atoms: _517  and  _519
REMARK  194  A    between atoms: _519  and  _520
REMARK  195  A    between atoms: _519  and  _522
REMARK  196  A    between atoms: _522  and  _523
REMARK  197  A    between atoms: _525  and  _527
REMARK  198  A    between atoms: _527  and  _528
REMARK  199  A    between atoms: _530  and  _532
REMARK  200  A    between atoms: _532  and  _533
REMARK  201  A    between atoms: _532  and  _535
REMARK  202  A    between atoms: _535  and  _536
REMARK  203  A    between atoms: _536  and  _537
REMARK  204  A    between atoms: _543  and  _544
REMARK  205  A    between atoms: _549  and  _551
REMARK  206  A    between atoms: _551  and  _552
REMARK  207  A    between atoms: _551  and  _554
REMARK  208  A    between atoms: _554  and  _555
REMARK  209  A    between atoms: _560  and  _561
REMARK  210  A    between atoms: _563  and  _565
REMARK  211  A    between atoms: _565  and  _566
REMARK  212  A    between atoms: _565  and  _568
REMARK  213  A    between atoms: _568  and  _569
REMARK  214  A    between atoms: _569  and  _570
REMARK  215  A    between atoms: _570  and  _571
REMARK  216  A    between atoms: _580  and  _582
REMARK  217  A    between atoms: _582  and  _583
REMARK  218  A    between atoms: _582  and  _585
REMARK  219  A    between atoms: _585  and  _586
REMARK  220  A    between atoms: _591  and  _592
REMARK  221  A    between atoms: _594  and  _596
REMARK  222  A    between atoms: _596  and  _597
REMARK  223  A    between atoms: _596  and  _599
REMARK  224  A    between atoms: _599  and  _600
REMARK  225  A    between atoms: _600  and  _601
REMARK  226  A    between atoms: _604  and  _606
REMARK  227  A    between atoms: _606  and  _607
REMARK  228  A    between atoms: _606  and  _609
REMARK  229  A    between atoms: _609  and  _610
REMARK  230  A    between atoms: _610  and  _611
REMARK  231  A    between atoms: _611  and  _612
REMARK                            x       y       z     vdW  Elec       q    Type
REMARK                         _______ _______ _______ _____ _____    ______ ____
ROOT
ATOM      1  O   HOH     1      32.992  -8.866  14.977  0.00  0.00    +0.000 OA
ENDROOT
TORSDOF 0
REMARK  Name = ../refined-set-2016/4zb6/4zb6_pocket.pdb
REMARK  231 active torsions:
REMARK  status: ('A' for Active; 'I' for Inactive)
REMARK    1  A    between atoms: _1  and  _3
REMARK    2  A    between atoms: _3  and  _4
REMARK    3  A    between atoms: _3  and  _6
REMARK    4  A    between atoms: _6  and  _7
REMARK    5  A    between atoms: _10  and  _12
REMARK    6  A    between atoms: _12  and  _13
REMARK    7  A    between atoms: _12  and  _15
REMARK    8  A    between atoms: _15  and  _16
REMARK    9  A    between atoms: _21  and  _23
REMARK   10  A    between atoms: _23  and  _24
REMARK   11  A    between atoms: _23  and  _26
REMARK   12  A    between atoms: _26  and  _27
REMARK   13  A    between atoms: _29  and  _31
REMARK   14  A    between atoms: _31  and  _32
REMARK   15  A    between atoms: _35  and  _36
REMARK   16  A    between atoms: _41  and  _43
REMARK   17  A    between atoms: _43  and  _44
REMARK   18  A    between atoms: _43  and  _46
REMARK   19  A    between atoms: _46  and  _47
REMARK   20  A    between atoms: _52  and  _54
REMARK   21  A    between atoms: _54  and  _55
REMARK   22  A    between atoms: _57  and  _59
REMARK   23  A    between atoms: _59  and  _60
REMARK   24  A    between atoms: _59  and  _62
REMARK   25  A    between atoms: _62  and  _63
REMARK   26  A    between atoms: _73  and  _75
REMARK   27  A    between atoms: _75  and  _76
REMARK   28  A    between atoms: _75  and  _78
REMARK   29  A    between atoms: _78  and  _79
REMARK   30  A    between atoms: _79  and  _80
REMARK   31  A    between atoms: _80  and  _81
REMARK   32  A    between atoms: _81  and  _82
REMARK   33  A    between atoms: _86  and  _88
REMARK   34  A    between atoms: _88  and  _89
REMARK   35  A    between atoms: _88  and  _91
REMARK   36  A    between atoms: _94  and  _96
REMARK   37  A    between atoms: _96  and  _97
REMARK   38  A    between atoms: _96  and  _99
REMARK   39  A    between atoms: _99  and  _100
REMARK   40  A    between atoms: _103  and  _105
REMARK   41  A    between atoms: _105  and  _106
REMARK   42  A    between atoms: _105  and  _108
REMARK   43  A    between atoms: _108  and  _109
REMARK   44  A    between atoms: _112  and  _114
REMARK   45  A    between atoms: _114  and  _115
REMARK   46  A    between atoms: _114  and  _117
REMARK   47  A    between atoms: _117  and  _118
REMARK   48  A    between atoms: _118  and  _119
REMARK   49  A    between atoms: _121  and  _123
REMARK   50  A    between atoms: _123  and  _124
REMARK   51  A    between atoms: _126  and  _128
REMARK   52  A    between atoms: _128  and  _129
REMARK   53  A    between atoms: _128  and  _131
REMARK   54  A    between atoms: _131  and  _132
REMARK   55  A    between atoms: _137  and  _139
REMARK   56  A    between atoms: _139  and  _140
REMARK   57  A    between atoms: _139  and  _142
REMARK   58  A    between atoms: _142  and  _143
REMARK   59  A    between atoms: _143  and  _144
REMARK   60  A    between atoms: _144  and  _145
REMARK   61  A    between atoms: _145  and  _146
REMARK   62  A    between atoms: _150  and  _152
REMARK   63  A    between atoms: _152  and  _153
REMARK   64  A    between atoms: _152  and  _155
REMARK   65  A    between atoms: _155  and  _156
REMARK   66  A    between atoms: _161  and  _162
REMARK   67  A    between atoms: _164  and  _166
REMARK   68  A    between atoms: _166  and  _167
REMARK   69  A    between atoms: _166  and  _169
REMARK   70  A    between atoms: _169  and  _170
REMARK   71  A    between atoms: _175  and  _177
REMARK   72  A    between atoms: _177  and  _178
REMARK   73  A    between atoms: _177  and  _180
REMARK   74  A    between atoms: _180  and  _181
REMARK   75  A    between atoms: _186  and  _188
REMARK   76  A    between atoms: _188  and  _189
REMARK   77  A    between atoms: _191  and  _193
REMARK   78  A    between atoms: _193  and  _194
REMARK   79  A    between atoms: _193  and  _196
REMARK   80  A    between atoms: _196  and  _197
REMARK   81  A    between atoms: _197  and  _198
REMARK   82  A    between atoms: _198  and  _199
REMARK   83  A    between atoms: _208  and  _210
REMARK   84  A    between atoms: _210  and  _211
REMARK   85  A    between atoms: _210  and  _213
REMARK   86  A    between atoms: _217  and  _218
REMARK   87  A    between atoms: _223  and  _225
REMARK   88  A    between atoms: _225  and  _226
REMARK   89  A    between atoms: _229  and  _231
REMARK   90  A    between atoms: _231  and  _232
REMARK   91  A    between atoms: _231  and  _234
REMARK   92  A    between atoms: _234  and  _235
REMARK   93  A    between atoms: _245  and  _247
REMARK   94  A    between atoms: _247  and  _248
REMARK   95  A    between atoms: _247  and  _250
REMARK   96  A    between atoms: _250  and  _251
REMARK   97  A    between atoms: _251  and  _252
REMARK   98  A    between atoms: _255  and  _257
REMARK   99  A    between atoms: _257  and  _258
REMARK  100  A    between atoms: _257  and  _260
REMARK  101  A    between atoms: _260  and  _261
REMARK  102  A    between atoms: _263  and  _265
REMARK  103  A    between atoms: _265  and  _266
REMARK  104  A    between atoms: _265  and  _268
REMARK  105  A    between atoms: _268  and  _269
REMARK  106  A    between atoms: _274  and  _276
REMARK  107  A    between atoms: _276  and  _277
REMARK  108  A    between atoms: _280  and  _282
REMARK  109  A    between atoms: _282  and  _283
REMARK  110  A    between atoms: _282  and  _285
REMARK  111  A    between atoms: _288  and  _290
REMARK  112  A    between atoms: _290  and  _291
REMARK  113  A    between atoms: _290  and  _293
REMARK  114  A    between atoms: _293  and  _294
REMARK  115  A    between atoms: _297  and  _299
REMARK  116  A    between atoms: _299  and  _300
REMARK  117  A    between atoms: _299  and  _302
REMARK  118  A    between atoms: _302  and  _303
REMARK  119  A    between atoms: _303  and  _304
REMARK  120  A    between atoms: _309  and  _311
REMARK  121  A    between atoms: _311  and  _312
REMARK  122  A    between atoms: _315  and  _317
REMARK  123  A    between atoms: _317  and  _318
REMARK  124  A    between atoms: _317  and  _320
REMARK  125  A    between atoms: _320  and  _321
REMARK  126  A    between atoms: _323  and  _325
REMARK  127  A    between atoms: _325  and  _326
REMARK  128  A    between atoms: _328  and  _330
REMARK  129  A    between atoms: _330  and  _331
REMARK  130  A    between atoms: _330  and  _333
REMARK  131  A    between atoms: _333  and  _334
REMARK  132  A    between atoms: _334  and  _335
REMARK  133  A    between atoms: _340  and  _342
REMARK  134  A    between atoms: _342  and  _343
REMARK  135  A    between atoms: _346  and  _347
REMARK  136  A    between atoms: _352  and  _354
REMARK  137  A    between atoms: _354  and  _355
REMARK  138  A    between atoms: _354  and  _357
REMARK  139  A    between atoms: _357  and  _358
REMARK  140  A    between atoms: _363  and  _364
REMARK  141  A    between atoms: _366  and  _368
REMARK  142  A    between atoms: _368  and  _369
REMARK  143  A    between atoms: _368  and  _371
REMARK  144  A    between atoms: _371  and  _372
REMARK  145  A    between atoms: _377  and  _378
REMARK  146  A    between atoms: _380  and  _382
REMARK  147  A    between atoms: _382  and  _383
REMARK  148  A    between atoms: _385  and  _387
REMARK  149  A    between atoms: _387  and  _388
REMARK  150  A    between atoms: _387  and  _390
REMARK  151  A    between atoms: _390  and  _391
REMARK  152  A    between atoms: _391  and  _392
REMARK  153  A    between atoms: _397  and  _399
REMARK  154  A    between atoms: _399  and  _400
REMARK  155  A    between atoms: _403  and  _405
REMARK  156  A    between atoms: _405  and  _406
REMARK  157  A    between atoms: _409  and  _411
REMARK  158  A    between atoms: _411  and  _412
REMARK  159  A    between atoms: _411  and  _414
REMARK  160  A    between atoms: _414  and  _415
REMARK  161  A    between atoms: _425  and  _427
REMARK  162  A    between atoms: _427  and  _428
REMARK  163  A    between atoms: _427  and  _430
REMARK  164  A    between atoms: _430  and  _431
REMARK  165  A    between atoms: _437  and  _439
REMARK  166  A    between atoms: _439  and  _440
REMARK  167  A    between atoms: _439  and  _442
REMARK  168  A    between atoms: _442  and  _443
REMARK  169  A    between atoms: _448  and  _449
REMARK  170  A    between atoms: _451  and  _453
REMARK  171  A    between atoms: _453  and  _454
REMARK  172  A    between atoms: _453  and  _456
REMARK  173  A    between atoms: _456  and  _457
REMARK  174  A    between atoms: _460  and  _462
REMARK  175  A    between atoms: _462  and  _463
REMARK  176  A    between atoms: _462  and  _465
REMARK  177  A    between atoms: _465  and  _466
REMARK  178  A    between atoms: _476  and  _478
REMARK  179  A    between atoms: _478  and  _479
REMARK  180  A    between atoms: _478  and  _481
REMARK  181  A    between atoms: _481  and  _482
REMARK  182  A    between atoms: _485  and  _487
REMARK  183  A    between atoms: _487  and  _488
REMARK  184  A    between atoms: _487  and  _490
REMARK  185  A    between atoms: _490  and  _491
REMARK  186  A    between atoms: _496  and  _497
REMARK  187  A    between atoms: _499  and  _501
REMARK  188  A    between atoms: _501  and  _502
REMARK  189  A    between atoms: _501  and  _504
REMARK  190  A    between atoms: _504  and  _505
REMARK  191  A    between atoms: _511  and  _513
REMARK  192  A    between atoms: _513  and  _514
REMARK  193  A    between atoms: _517  and  _519
REMARK  194  A    between atoms: _519  and  _520
REMARK  195  A    between atoms: _519  and  _522
REMARK  196  A    between atoms: _522  and  _523
REMARK  197  A    between atoms: _525  and  _527
REMARK  198  A    between atoms: _527  and  _528
REMARK  199  A    between atoms: _530  and  _532
REMARK  200  A    between atoms: _532  and  _533
REMARK  201  A    between atoms: _532  and  _535
REMARK  202  A    between atoms: _535  and  _536
REMARK  203  A    between atoms: _536  and  _537
REMARK  204  A    between atoms: _543  and  _544
REMARK  205  A    between atoms: _549  and  _551
REMARK  206  A    between atoms: _551  and  _552
REMARK  207  A    between atoms: _551  and  _554
REMARK  208  A    between atoms: _554  and  _555
REMARK  209  A    between atoms: _560  and  _561
REMARK  210  A    between atoms: _563  and  _565
REMARK  211  A    between atoms: _565  and  _566
REMARK  212  A    between atoms: _565  and  _568
REMARK  213  A    between atoms: _568  and  _569
REMARK  214  A    between atoms: _569  and  _570
REMARK  215  A    between atoms: _570  and  _571
REMARK  216  A    between atoms: _580  and  _582
REMARK  217  A    between atoms: _582  and  _583
REMARK  218  A    between atoms: _582  and  _585
REMARK  219  A    between atoms: _585  and  _586
REMARK  220  A    between atoms: _591  and  _592
REMARK  221  A    between atoms: _594  and  _596
REMARK  222  A    between atoms: _596  and  _597
REMARK  223  A    between atoms: _596  and  _599
REMARK  224  A    between atoms: _599  and  _600
REMARK  225  A    between atoms: _600  and  _601
REMARK  226  A    between atoms: _604  and  _606
REMARK  227  A    between atoms: _606  and  _607
REMARK  228  A    between atoms: _606  and  _609
REMARK  229  A    between atoms: _609  and  _610
REMARK  230  A    between atoms: _610  and  _611
REMARK  231  A    between atoms: _611  and  _612
REMARK                            x       y       z     vdW  Elec       q    Type
REMARK                         _______ _______ _______ _____ _____    ______ ____
ROOT
ATOM      1  O   HOH     1      19.095   0.463   5.208  0.00  0.00    +0.000 OA
ENDROOT
TORSDOF 0
REMARK  Name = ../refined-set-2016/4zb6/4zb6_pocket.pdb
REMARK  231 active torsions:
REMARK  status: ('A' for Active; 'I' for Inactive)
REMARK    1  A    between atoms: _1  and  _3
REMARK    2  A    between atoms: _3  and  _4
REMARK    3  A    between atoms: _3  and  _6
REMARK    4  A    between atoms: _6  and  _7
REMARK    5  A    between atoms: _10  and  _12
REMARK    6  A    between atoms: _12  and  _13
REMARK    7  A    between atoms: _12  and  _15
REMARK    8  A    between atoms: _15  and  _16
REMARK    9  A    between atoms: _21  and  _23
REMARK   10  A    between atoms: _23  and  _24
REMARK   11  A    between atoms: _23  and  _26
REMARK   12  A    between atoms: _26  and  _27
REMARK   13  A    between atoms: _29  and  _31
REMARK   14  A    between atoms: _31  and  _32
REMARK   15  A    between atoms: _35  and  _36
REMARK   16  A    between atoms: _41  and  _43
REMARK   17  A    between atoms: _43  and  _44
REMARK   18  A    between atoms: _43  and  _46
REMARK   19  A    between atoms: _46  and  _47
REMARK   20  A    between atoms: _52  and  _54
REMARK   21  A    between atoms: _54  and  _55
REMARK   22  A    between atoms: _57  and  _59
REMARK   23  A    between atoms: _59  and  _60
REMARK   24  A    between atoms: _59  and  _62
REMARK   25  A    between atoms: _62  and  _63
REMARK   26  A    between atoms: _73  and  _75
REMARK   27  A    between atoms: _75  and  _76
REMARK   28  A    between atoms: _75  and  _78
REMARK   29  A    between atoms: _78  and  _79
REMARK   30  A    between atoms: _79  and  _80
REMARK   31  A    between atoms: _80  and  _81
REMARK   32  A    between atoms: _81  and  _82
REMARK   33  A    between atoms: _86  and  _88
REMARK   34  A    between atoms: _88  and  _89
REMARK   35  A    between atoms: _88  and  _91
REMARK   36  A    between atoms: _94  and  _96
REMARK   37  A    between atoms: _96  and  _97
REMARK   38  A    between atoms: _96  and  _99
REMARK   39  A    between atoms: _99  and  _100
REMARK   40  A    between atoms: _103  and  _105
REMARK   41  A    between atoms: _105  and  _106
REMARK   42  A    between atoms: _105  and  _108
REMARK   43  A    between atoms: _108  and  _109
REMARK   44  A    between atoms: _112  and  _114
REMARK   45  A    between atoms: _114  and  _115
REMARK   46  A    between atoms: _114  and  _117
REMARK   47  A    between atoms: _117  and  _118
REMARK   48  A    between atoms: _118  and  _119
REMARK   49  A    between atoms: _121  and  _123
REMARK   50  A    between atoms: _123  and  _124
REMARK   51  A    between atoms: _126  and  _128
REMARK   52  A    between atoms: _128  and  _129
REMARK   53  A    between atoms: _128  and  _131
REMARK   54  A    between atoms: _131  and  _132
REMARK   55  A    between atoms: _137  and  _139
REMARK   56  A    between atoms: _139  and  _140
REMARK   57  A    between atoms: _139  and  _142
REMARK   58  A    between atoms: _142  and  _143
REMARK   59  A    between atoms: _143  and  _144
REMARK   60  A    between atoms: _144  and  _145
REMARK   61  A    between atoms: _145  and  _146
REMARK   62  A    between atoms: _150  and  _152
REMARK   63  A    between atoms: _152  and  _153
REMARK   64  A    between atoms: _152  and  _155
REMARK   65  A    between atoms: _155  and  _156
REMARK   66  A    between atoms: _161  and  _162
REMARK   67  A    between atoms: _164  and  _166
REMARK   68  A    between atoms: _166  and  _167
REMARK   69  A    between atoms: _166  and  _169
REMARK   70  A    between atoms: _169  and  _170
REMARK   71  A    between atoms: _175  and  _177
REMARK   72  A    between atoms: _177  and  _178
REMARK   73  A    between atoms: _177  and  _180
REMARK   74  A    between atoms: _180  and  _181
REMARK   75  A    between atoms: _186  and  _188
REMARK   76  A    between atoms: _188  and  _189
REMARK   77  A    between atoms: _191  and  _193
REMARK   78  A    between atoms: _193  and  _194
REMARK   79  A    between atoms: _193  and  _196
REMARK   80  A    between atoms: _196  and  _197
REMARK   81  A    between atoms: _197  and  _198
REMARK   82  A    between atoms: _198  and  _199
REMARK   83  A    between atoms: _208  and  _210
REMARK   84  A    between atoms: _210  and  _211
REMARK   85  A    between atoms: _210  and  _213
REMARK   86  A    between atoms: _217  and  _218
REMARK   87  A    between atoms: _223  and  _225
REMARK   88  A    between atoms: _225  and  _226
REMARK   89  A    between atoms: _229  and  _231
REMARK   90  A    between atoms: _231  and  _232
REMARK   91  A    between atoms: _231  and  _234
REMARK   92  A    between atoms: _234  and  _235
REMARK   93  A    between atoms: _245  and  _247
REMARK   94  A    between atoms: _247  and  _248
REMARK   95  A    between atoms: _247  and  _250
REMARK   96  A    between atoms: _250  and  _251
REMARK   97  A    between atoms: _251  and  _252
REMARK   98  A    between atoms: _255  and  _257
REMARK   99  A    between atoms: _257  and  _258
REMARK  100  A    between atoms: _257  and  _260
REMARK  101  A    between atoms: _260  and  _261
REMARK  102  A    between atoms: _263  and  _265
REMARK  103  A    between atoms: _265  and  _266
REMARK  104  A    between atoms: _265  and  _268
REMARK  105  A    between atoms: _268  and  _269
REMARK  106  A    between atoms: _274  and  _276
REMARK  107  A    between atoms: _276  and  _277
REMARK  108  A    between atoms: _280  and  _282
REMARK  109  A    between atoms: _282  and  _283
REMARK  110  A    between atoms: _282  and  _285
REMARK  111  A    between atoms: _288  and  _290
REMARK  112  A    between atoms: _290  and  _291
REMARK  113  A    between atoms: _290  and  _293
REMARK  114  A    between atoms: _293  and  _294
REMARK  115  A    between atoms: _297  and  _299
REMARK  116  A    between atoms: _299  and  _300
REMARK  117  A    between atoms: _299  and  _302
REMARK  118  A    between atoms: _302  and  _303
REMARK  119  A    between atoms: _303  and  _304
REMARK  120  A    between atoms: _309  and  _311
REMARK  121  A    between atoms: _311  and  _312
REMARK  122  A    between atoms: _315  and  _317
REMARK  123  A    between atoms: _317  and  _318
REMARK  124  A    between atoms: _317  and  _320
REMARK  125  A    between atoms: _320  and  _321
REMARK  126  A    between atoms: _323  and  _325
REMARK  127  A    between atoms: _325  and  _326
REMARK  128  A    between atoms: _328  and  _330
REMARK  129  A    between atoms: _330  and  _331
REMARK  130  A    between atoms: _330  and  _333
REMARK  131  A    between atoms: _333  and  _334
REMARK  132  A    between atoms: _334  and  _335
REMARK  133  A    between atoms: _340  and  _342
REMARK  134  A    between atoms: _342  and  _343
REMARK  135  A    between atoms: _346  and  _347
REMARK  136  A    between atoms: _352  and  _354
REMARK  137  A    between atoms: _354  and  _355
REMARK  138  A    between atoms: _354  and  _357
REMARK  139  A    between atoms: _357  and  _358
REMARK  140  A    between atoms: _363  and  _364
REMARK  141  A    between atoms: _366  and  _368
REMARK  142  A    between atoms: _368  and  _369
REMARK  143  A    between atoms: _368  and  _371
REMARK  144  A    between atoms: _371  and  _372
REMARK  145  A    between atoms: _377  and  _378
REMARK  146  A    between atoms: _380  and  _382
REMARK  147  A    between atoms: _382  and  _383
REMARK  148  A    between atoms: _385  and  _387
REMARK  149  A    between atoms: _387  and  _388
REMARK  150  A    between atoms: _387  and  _390
REMARK  151  A    between atoms: _390  and  _391
REMARK  152  A    between atoms: _391  and  _392
REMARK  153  A    between atoms: _397  and  _399
REMARK  154  A    between atoms: _399  and  _400
REMARK  155  A    between atoms: _403  and  _405
REMARK  156  A    between atoms: _405  and  _406
REMARK  157  A    between atoms: _409  and  _411
REMARK  158  A    between atoms: _411  and  _412
REMARK  159  A    between atoms: _411  and  _414
REMARK  160  A    between atoms: _414  and  _415
REMARK  161  A    between atoms: _425  and  _427
REMARK  162  A    between atoms: _427  and  _428
REMARK  163  A    between atoms: _427  and  _430
REMARK  164  A    between atoms: _430  and  _431
REMARK  165  A    between atoms: _437  and  _439
REMARK  166  A    between atoms: _439  and  _440
REMARK  167  A    between atoms: _439  and  _442
REMARK  168  A    between atoms: _442  and  _443
REMARK  169  A    between atoms: _448  and  _449
REMARK  170  A    between atoms: _451  and  _453
REMARK  171  A    between atoms: _453  and  _454
REMARK  172  A    between atoms: _453  and  _456
REMARK  173  A    between atoms: _456  and  _457
REMARK  174  A    between atoms: _460  and  _462
REMARK  175  A    between atoms: _462  and  _463
REMARK  176  A    between atoms: _462  and  _465
REMARK  177  A    between atoms: _465  and  _466
REMARK  178  A    between atoms: _476  and  _478
REMARK  179  A    between atoms: _478  and  _479
REMARK  180  A    between atoms: _478  and  _481
REMARK  181  A    between atoms: _481  and  _482
REMARK  182  A    between atoms: _485  and  _487
REMARK  183  A    between atoms: _487  and  _488
REMARK  184  A    between atoms: _487  and  _490
REMARK  185  A    between atoms: _490  and  _491
REMARK  186  A    between atoms: _496  and  _497
REMARK  187  A    between atoms: _499  and  _501
REMARK  188  A    between atoms: _501  and  _502
REMARK  189  A    between atoms: _501  and  _504
REMARK  190  A    between atoms: _504  and  _505
REMARK  191  A    between atoms: _511  and  _513
REMARK  192  A    between atoms: _513  and  _514
REMARK  193  A    between atoms: _517  and  _519
REMARK  194  A    between atoms: _519  and  _520
REMARK  195  A    between atoms: _519  and  _522
REMARK  196  A    between atoms: _522  and  _523
REMARK  197  A    between atoms: _525  and  _527
REMARK  198  A    between atoms: _527  and  _528
REMARK  199  A    between atoms: _530  and  _532
REMARK  200  A    between atoms: _532  and  _533
REMARK  201  A    between atoms: _532  and  _535
REMARK  202  A    between atoms: _535  and  _536
REMARK  203  A    between atoms: _536  and  _537
REMARK  204  A    between atoms: _543  and  _544
REMARK  205  A    between atoms: _549  and  _551
REMARK  206  A    between atoms: _551  and  _552
REMARK  207  A    between atoms: _551  and  _554
REMARK  208  A    between atoms: _554  and  _555
REMARK  209  A    between atoms: _560  and  _561
REMARK  210  A    between atoms: _563  and  _565
REMARK  211  A    between atoms: _565  and  _566
REMARK  212  A    between atoms: _565  and  _568
REMARK  213  A    between atoms: _568  and  _569
REMARK  214  A    between atoms: _569  and  _570
REMARK  215  A    between atoms: _570  and  _571
REMARK  216  A    between atoms: _580  and  _582
REMARK  217  A    between atoms: _582  and  _583
REMARK  218  A    between atoms: _582  and  _585
REMARK  219  A    between atoms: _585  and  _586
REMARK  220  A    between atoms: _591  and  _592
REMARK  221  A    between atoms: _594  and  _596
REMARK  222  A    between atoms: _596  and  _597
REMARK  223  A    between atoms: _596  and  _599
REMARK  224  A    between atoms: _599  and  _600
REMARK  225  A    between atoms: _600  and  _601
REMARK  226  A    between atoms: _604  and  _606
REMARK  227  A    between atoms: _606  and  _607
REMARK  228  A    between atoms: _606  and  _609
REMARK  229  A    between atoms: _609  and  _610
REMARK  230  A    between atoms: _610  and  _611
REMARK  231  A    between atoms: _611  and  _612
REMARK                            x       y       z     vdW  Elec       q    Type
REMARK                         _______ _______ _______ _____ _____    ______ ____
ROOT
ATOM      1  O   HOH     1      25.384  -6.045  18.275  0.00  0.00    +0.000 OA
ENDROOT
TORSDOF 0
REMARK  Name = ../refined-set-2016/4zb6/4zb6_pocket.pdb
REMARK  231 active torsions:
REMARK  status: ('A' for Active; 'I' for Inactive)
REMARK    1  A    between atoms: _1  and  _3
REMARK    2  A    between atoms: _3  and  _4
REMARK    3  A    between atoms: _3  and  _6
REMARK    4  A    between atoms: _6  and  _7
REMARK    5  A    between atoms: _10  and  _12
REMARK    6  A    between atoms: _12  and  _13
REMARK    7  A    between atoms: _12  and  _15
REMARK    8  A    between atoms: _15  and  _16
REMARK    9  A    between atoms: _21  and  _23
REMARK   10  A    between atoms: _23  and  _24
REMARK   11  A    between atoms: _23  and  _26
REMARK   12  A    between atoms: _26  and  _27
REMARK   13  A    between atoms: _29  and  _31
REMARK   14  A    between atoms: _31  and  _32
REMARK   15  A    between atoms: _35  and  _36
REMARK   16  A    between atoms: _41  and  _43
REMARK   17  A    between atoms: _43  and  _44
REMARK   18  A    between atoms: _43  and  _46
REMARK   19  A    between atoms: _46  and  _47
REMARK   20  A    between atoms: _52  and  _54
REMARK   21  A    between atoms: _54  and  _55
REMARK   22  A    between atoms: _57  and  _59
REMARK   23  A    between atoms: _59  and  _60
REMARK   24  A    between atoms: _59  and  _62
REMARK   25  A    between atoms: _62  and  _63
REMARK   26  A    between atoms: _73  and  _75
REMARK   27  A    between atoms: _75  and  _76
REMARK   28  A    between atoms: _75  and  _78
REMARK   29  A    between atoms: _78  and  _79
REMARK   30  A    between atoms: _79  and  _80
REMARK   31  A    between atoms: _80  and  _81
REMARK   32  A    between atoms: _81  and  _82
REMARK   33  A    between atoms: _86  and  _88
REMARK   34  A    between atoms: _88  and  _89
REMARK   35  A    between atoms: _88  and  _91
REMARK   36  A    between atoms: _94  and  _96
REMARK   37  A    between atoms: _96  and  _97
REMARK   38  A    between atoms: _96  and  _99
REMARK   39  A    between atoms: _99  and  _100
REMARK   40  A    between atoms: _103  and  _105
REMARK   41  A    between atoms: _105  and  _106
REMARK   42  A    between atoms: _105  and  _108
REMARK   43  A    between atoms: _108  and  _109
REMARK   44  A    between atoms: _112  and  _114
REMARK   45  A    between atoms: _114  and  _115
REMARK   46  A    between atoms: _114  and  _117
REMARK   47  A    between atoms: _117  and  _118
REMARK   48  A    between atoms: _118  and  _119
REMARK   49  A    between atoms: _121  and  _123
REMARK   50  A    between atoms: _123  and  _124
REMARK   51  A    between atoms: _126  and  _128
REMARK   52  A    between atoms: _128  and  _129
REMARK   53  A    between atoms: _128  and  _131
REMARK   54  A    between atoms: _131  and  _132
REMARK   55  A    between atoms: _137  and  _139
REMARK   56  A    between atoms: _139  and  _140
REMARK   57  A    between atoms: _139  and  _142
REMARK   58  A    between atoms: _142  and  _143
REMARK   59  A    between atoms: _143  and  _144
REMARK   60  A    between atoms: _144  and  _145
REMARK   61  A    between atoms: _145  and  _146
REMARK   62  A    between atoms: _150  and  _152
REMARK   63  A    between atoms: _152  and  _153
REMARK   64  A    between atoms: _152  and  _155
REMARK   65  A    between atoms: _155  and  _156
REMARK   66  A    between atoms: _161  and  _162
REMARK   67  A    between atoms: _164  and  _166
REMARK   68  A    between atoms: _166  and  _167
REMARK   69  A    between atoms: _166  and  _169
REMARK   70  A    between atoms: _169  and  _170
REMARK   71  A    between atoms: _175  and  _177
REMARK   72  A    between atoms: _177  and  _178
REMARK   73  A    between atoms: _177  and  _180
REMARK   74  A    between atoms: _180  and  _181
REMARK   75  A    between atoms: _186  and  _188
REMARK   76  A    between atoms: _188  and  _189
REMARK   77  A    between atoms: _191  and  _193
REMARK   78  A    between atoms: _193  and  _194
REMARK   79  A    between atoms: _193  and  _196
REMARK   80  A    between atoms: _196  and  _197
REMARK   81  A    between atoms: _197  and  _198
REMARK   82  A    between atoms: _198  and  _199
REMARK   83  A    between atoms: _208  and  _210
REMARK   84  A    between atoms: _210  and  _211
REMARK   85  A    between atoms: _210  and  _213
REMARK   86  A    between atoms: _217  and  _218
REMARK   87  A    between atoms: _223  and  _225
REMARK   88  A    between atoms: _225  and  _226
REMARK   89  A    between atoms: _229  and  _231
REMARK   90  A    between atoms: _231  and  _232
REMARK   91  A    between atoms: _231  and  _234
REMARK   92  A    between atoms: _234  and  _235
REMARK   93  A    between atoms: _245  and  _247
REMARK   94  A    between atoms: _247  and  _248
REMARK   95  A    between atoms: _247  and  _250
REMARK   96  A    between atoms: _250  and  _251
REMARK   97  A    between atoms: _251  and  _252
REMARK   98  A    between atoms: _255  and  _257
REMARK   99  A    between atoms: _257  and  _258
REMARK  100  A    between atoms: _257  and  _260
REMARK  101  A    between atoms: _260  and  _261
REMARK  102  A    between atoms: _263  and  _265
REMARK  103  A    between atoms: _265  and  _266
REMARK  104  A    between atoms: _265  and  _268
REMARK  105  A    between atoms: _268  and  _269
REMARK  106  A    between atoms: _274  and  _276
REMARK  107  A    between atoms: _276  and  _277
REMARK  108  A    between atoms: _280  and  _282
REMARK  109  A    between atoms: _282  and  _283
REMARK  110  A    between atoms: _282  and  _285
REMARK  111  A    between atoms: _288  and  _290
REMARK  112  A    between atoms: _290  and  _291
REMARK  113  A    between atoms: _290  and  _293
REMARK  114  A    between atoms: _293  and  _294
REMARK  115  A    between atoms: _297  and  _299
REMARK  116  A    between atoms: _299  and  _300
REMARK  117  A    between atoms: _299  and  _302
REMARK  118  A    between atoms: _302  and  _303
REMARK  119  A    between atoms: _303  and  _304
REMARK  120  A    between atoms: _309  and  _311
REMARK  121  A    between atoms: _311  and  _312
REMARK  122  A    between atoms: _315  and  _317
REMARK  123  A    between atoms: _317  and  _318
REMARK  124  A    between atoms: _317  and  _320
REMARK  125  A    between atoms: _320  and  _321
REMARK  126  A    between atoms: _323  and  _325
REMARK  127  A    between atoms: _325  and  _326
REMARK  128  A    between atoms: _328  and  _330
REMARK  129  A    between atoms: _330  and  _331
REMARK  130  A    between atoms: _330  and  _333
REMARK  131  A    between atoms: _333  and  _334
REMARK  132  A    between atoms: _334  and  _335
REMARK  133  A    between atoms: _340  and  _342
REMARK  134  A    between atoms: _342  and  _343
REMARK  135  A    between atoms: _346  and  _347
REMARK  136  A    between atoms: _352  and  _354
REMARK  137  A    between atoms: _354  and  _355
REMARK  138  A    between atoms: _354  and  _357
REMARK  139  A    between atoms: _357  and  _358
REMARK  140  A    between atoms: _363  and  _364
REMARK  141  A    between atoms: _366  and  _368
REMARK  142  A    between atoms: _368  and  _369
REMARK  143  A    between atoms: _368  and  _371
REMARK  144  A    between atoms: _371  and  _372
REMARK  145  A    between atoms: _377  and  _378
REMARK  146  A    between atoms: _380  and  _382
REMARK  147  A    between atoms: _382  and  _383
REMARK  148  A    between atoms: _385  and  _387
REMARK  149  A    between atoms: _387  and  _388
REMARK  150  A    between atoms: _387  and  _390
REMARK  151  A    between atoms: _390  and  _391
REMARK  152  A    between atoms: _391  and  _392
REMARK  153  A    between atoms: _397  and  _399
REMARK  154  A    between atoms: _399  and  _400
REMARK  155  A    between atoms: _403  and  _405
REMARK  156  A    between atoms: _405  and  _406
REMARK  157  A    between atoms: _409  and  _411
REMARK  158  A    between atoms: _411  and  _412
REMARK  159  A    between atoms: _411  and  _414
REMARK  160  A    between atoms: _414  and  _415
REMARK  161  A    between atoms: _425  and  _427
REMARK  162  A    between atoms: _427  and  _428
REMARK  163  A    between atoms: _427  and  _430
REMARK  164  A    between atoms: _430  and  _431
REMARK  165  A    between atoms: _437  and  _439
REMARK  166  A    between atoms: _439  and  _440
REMARK  167  A    between atoms: _439  and  _442
REMARK  168  A    between atoms: _442  and  _443
REMARK  169  A    between atoms: _448  and  _449
REMARK  170  A    between atoms: _451  and  _453
REMARK  171  A    between atoms: _453  and  _454
REMARK  172  A    between atoms: _453  and  _456
REMARK  173  A    between atoms: _456  and  _457
REMARK  174  A    between atoms: _460  and  _462
REMARK  175  A    between atoms: _462  and  _463
REMARK  176  A    between atoms: _462  and  _465
REMARK  177  A    between atoms: _465  and  _466
REMARK  178  A    between atoms: _476  and  _478
REMARK  179  A    between atoms: _478  and  _479
REMARK  180  A    between atoms: _478  and  _481
REMARK  181  A    between atoms: _481  and  _482
REMARK  182  A    between atoms: _485  and  _487
REMARK  183  A    between atoms: _487  and  _488
REMARK  184  A    between atoms: _487  and  _490
REMARK  185  A    between atoms: _490  and  _491
REMARK  186  A    between atoms: _496  and  _497
REMARK  187  A    between atoms: _499  and  _501
REMARK  188  A    between atoms: _501  and  _502
REMARK  189  A    between atoms: _501  and  _504
REMARK  190  A    between atoms: _504  and  _505
REMARK  191  A    between atoms: _511  and  _513
REMARK  192  A    between atoms: _513  and  _514
REMARK  193  A    between atoms: _517  and  _519
REMARK  194  A    between atoms: _519  and  _520
REMARK  195  A    between atoms: _519  and  _522
REMARK  196  A    between atoms: _522  and  _523
REMARK  197  A    between atoms: _525  and  _527
REMARK  198  A    between atoms: _527  and  _528
REMARK  199  A    between atoms: _530  and  _532
REMARK  200  A    between atoms: _532  and  _533
REMARK  201  A    between atoms: _532  and  _535
REMARK  202  A    between atoms: _535  and  _536
REMARK  203  A    between atoms: _536  and  _537
REMARK  204  A    between atoms: _543  and  _544
REMARK  205  A    between atoms: _549  and  _551
REMARK  206  A    between atoms: _551  and  _552
REMARK  207  A    between atoms: _551  and  _554
REMARK  208  A    between atoms: _554  and  _555
REMARK  209  A    between atoms: _560  and  _561
REMARK  210  A    between atoms: _563  and  _565
REMARK  211  A    between atoms: _565  and  _566
REMARK  212  A    between atoms: _565  and  _568
REMARK  213  A    between atoms: _568  and  _569
REMARK  214  A    between atoms: _569  and  _570
REMARK  215  A    between atoms: _570  and  _571
REMARK  216  A    between atoms: _580  and  _582
REMARK  217  A    between atoms: _582  and  _583
REMARK  218  A    between atoms: _582  and  _585
REMARK  219  A    between atoms: _585  and  _586
REMARK  220  A    between atoms: _591  and  _592
REMARK  221  A    between atoms: _594  and  _596
REMARK  222  A    between atoms: _596  and  _597
REMARK  223  A    between atoms: _596  and  _599
REMARK  224  A    between atoms: _599  and  _600
REMARK  225  A    between atoms: _600  and  _601
REMARK  226  A    between atoms: _604  and  _606
REMARK  227  A    between atoms: _606  and  _607
REMARK  228  A    between atoms: _606  and  _609
REMARK  229  A    between atoms: _609  and  _610
REMARK  230  A    between atoms: _610  and  _611
REMARK  231  A    between atoms: _611  and  _612
REMARK                            x       y       z     vdW  Elec       q    Type
REMARK                         _______ _______ _______ _____ _____    ______ ____
ROOT
ATOM      1  O   HOH     1      21.171  -0.231  13.377  0.00  0.00    +0.000 OA
ENDROOT
TORSDOF 0
REMARK  Name = ../refined-set-2016/4zb6/4zb6_pocket.pdb
REMARK  231 active torsions:
REMARK  status: ('A' for Active; 'I' for Inactive)
REMARK    1  A    between atoms: _1  and  _3
REMARK    2  A    between atoms: _3  and  _4
REMARK    3  A    between atoms: _3  and  _6
REMARK    4  A    between atoms: _6  and  _7
REMARK    5  A    between atoms: _10  and  _12
REMARK    6  A    between atoms: _12  and  _13
REMARK    7  A    between atoms: _12  and  _15
REMARK    8  A    between atoms: _15  and  _16
REMARK    9  A    between atoms: _21  and  _23
REMARK   10  A    between atoms: _23  and  _24
REMARK   11  A    between atoms: _23  and  _26
REMARK   12  A    between atoms: _26  and  _27
REMARK   13  A    between atoms: _29  and  _31
REMARK   14  A    between atoms: _31  and  _32
REMARK   15  A    between atoms: _35  and  _36
REMARK   16  A    between atoms: _41  and  _43
REMARK   17  A    between atoms: _43  and  _44
REMARK   18  A    between atoms: _43  and  _46
REMARK   19  A    between atoms: _46  and  _47
REMARK   20  A    between atoms: _52  and  _54
REMARK   21  A    between atoms: _54  and  _55
REMARK   22  A    between atoms: _57  and  _59
REMARK   23  A    between atoms: _59  and  _60
REMARK   24  A    between atoms: _59  and  _62
REMARK   25  A    between atoms: _62  and  _63
REMARK   26  A    between atoms: _73  and  _75
REMARK   27  A    between atoms: _75  and  _76
REMARK   28  A    between atoms: _75  and  _78
REMARK   29  A    between atoms: _78  and  _79
REMARK   30  A    between atoms: _79  and  _80
REMARK   31  A    between atoms: _80  and  _81
REMARK   32  A    between atoms: _81  and  _82
REMARK   33  A    between atoms: _86  and  _88
REMARK   34  A    between atoms: _88  and  _89
REMARK   35  A    between atoms: _88  and  _91
REMARK   36  A    between atoms: _94  and  _96
REMARK   37  A    between atoms: _96  and  _97
REMARK   38  A    between atoms: _96  and  _99
REMARK   39  A    between atoms: _99  and  _100
REMARK   40  A    between atoms: _103  and  _105
REMARK   41  A    between atoms: _105  and  _106
REMARK   42  A    between atoms: _105  and  _108
REMARK   43  A    between atoms: _108  and  _109
REMARK   44  A    between atoms: _112  and  _114
REMARK   45  A    between atoms: _114  and  _115
REMARK   46  A    between atoms: _114  and  _117
REMARK   47  A    between atoms: _117  and  _118
REMARK   48  A    between atoms: _118  and  _119
REMARK   49  A    between atoms: _121  and  _123
REMARK   50  A    between atoms: _123  and  _124
REMARK   51  A    between atoms: _126  and  _128
REMARK   52  A    between atoms: _128  and  _129
REMARK   53  A    between atoms: _128  and  _131
REMARK   54  A    between atoms: _131  and  _132
REMARK   55  A    between atoms: _137  and  _139
REMARK   56  A    between atoms: _139  and  _140
REMARK   57  A    between atoms: _139  and  _142
REMARK   58  A    between atoms: _142  and  _143
REMARK   59  A    between atoms: _143  and  _144
REMARK   60  A    between atoms: _144  and  _145
REMARK   61  A    between atoms: _145  and  _146
REMARK   62  A    between atoms: _150  and  _152
REMARK   63  A    between atoms: _152  and  _153
REMARK   64  A    between atoms: _152  and  _155
REMARK   65  A    between atoms: _155  and  _156
REMARK   66  A    between atoms: _161  and  _162
REMARK   67  A    between atoms: _164  and  _166
REMARK   68  A    between atoms: _166  and  _167
REMARK   69  A    between atoms: _166  and  _169
REMARK   70  A    between atoms: _169  and  _170
REMARK   71  A    between atoms: _175  and  _177
REMARK   72  A    between atoms: _177  and  _178
REMARK   73  A    between atoms: _177  and  _180
REMARK   74  A    between atoms: _180  and  _181
REMARK   75  A    between atoms: _186  and  _188
REMARK   76  A    between atoms: _188  and  _189
REMARK   77  A    between atoms: _191  and  _193
REMARK   78  A    between atoms: _193  and  _194
REMARK   79  A    between atoms: _193  and  _196
REMARK   80  A    between atoms: _196  and  _197
REMARK   81  A    between atoms: _197  and  _198
REMARK   82  A    between atoms: _198  and  _199
REMARK   83  A    between atoms: _208  and  _210
REMARK   84  A    between atoms: _210  and  _211
REMARK   85  A    between atoms: _210  and  _213
REMARK   86  A    between atoms: _217  and  _218
REMARK   87  A    between atoms: _223  and  _225
REMARK   88  A    between atoms: _225  and  _226
REMARK   89  A    between atoms: _229  and  _231
REMARK   90  A    between atoms: _231  and  _232
REMARK   91  A    between atoms: _231  and  _234
REMARK   92  A    between atoms: _234  and  _235
REMARK   93  A    between atoms: _245  and  _247
REMARK   94  A    between atoms: _247  and  _248
REMARK   95  A    between atoms: _247  and  _250
REMARK   96  A    between atoms: _250  and  _251
REMARK   97  A    between atoms: _251  and  _252
REMARK   98  A    between atoms: _255  and  _257
REMARK   99  A    between atoms: _257  and  _258
REMARK  100  A    between atoms: _257  and  _260
REMARK  101  A    between atoms: _260  and  _261
REMARK  102  A    between atoms: _263  and  _265
REMARK  103  A    between atoms: _265  and  _266
REMARK  104  A    between atoms: _265  and  _268
REMARK  105  A    between atoms: _268  and  _269
REMARK  106  A    between atoms: _274  and  _276
REMARK  107  A    between atoms: _276  and  _277
REMARK  108  A    between atoms: _280  and  _282
REMARK  109  A    between atoms: _282  and  _283
REMARK  110  A    between atoms: _282  and  _285
REMARK  111  A    between atoms: _288  and  _290
REMARK  112  A    between atoms: _290  and  _291
REMARK  113  A    between atoms: _290  and  _293
REMARK  114  A    between atoms: _293  and  _294
REMARK  115  A    between atoms: _297  and  _299
REMARK  116  A    between atoms: _299  and  _300
REMARK  117  A    between atoms: _299  and  _302
REMARK  118  A    between atoms: _302  and  _303
REMARK  119  A    between atoms: _303  and  _304
REMARK  120  A    between atoms: _309  and  _311
REMARK  121  A    between atoms: _311  and  _312
REMARK  122  A    between atoms: _315  and  _317
REMARK  123  A    between atoms: _317  and  _318
REMARK  124  A    between atoms: _317  and  _320
REMARK  125  A    between atoms: _320  and  _321
REMARK  126  A    between atoms: _323  and  _325
REMARK  127  A    between atoms: _325  and  _326
REMARK  128  A    between atoms: _328  and  _330
REMARK  129  A    between atoms: _330  and  _331
REMARK  130  A    between atoms: _330  and  _333
REMARK  131  A    between atoms: _333  and  _334
REMARK  132  A    between atoms: _334  and  _335
REMARK  133  A    between atoms: _340  and  _342
REMARK  134  A    between atoms: _342  and  _343
REMARK  135  A    between atoms: _346  and  _347
REMARK  136  A    between atoms: _352  and  _354
REMARK  137  A    between atoms: _354  and  _355
REMARK  138  A    between atoms: _354  and  _357
REMARK  139  A    between atoms: _357  and  _358
REMARK  140  A    between atoms: _363  and  _364
REMARK  141  A    between atoms: _366  and  _368
REMARK  142  A    between atoms: _368  and  _369
REMARK  143  A    between atoms: _368  and  _371
REMARK  144  A    between atoms: _371  and  _372
REMARK  145  A    between atoms: _377  and  _378
REMARK  146  A    between atoms: _380  and  _382
REMARK  147  A    between atoms: _382  and  _383
REMARK  148  A    between atoms: _385  and  _387
REMARK  149  A    between atoms: _387  and  _388
REMARK  150  A    between atoms: _387  and  _390
REMARK  151  A    between atoms: _390  and  _391
REMARK  152  A    between atoms: _391  and  _392
REMARK  153  A    between atoms: _397  and  _399
REMARK  154  A    between atoms: _399  and  _400
REMARK  155  A    between atoms: _403  and  _405
REMARK  156  A    between atoms: _405  and  _406
REMARK  157  A    between atoms: _409  and  _411
REMARK  158  A    between atoms: _411  and  _412
REMARK  159  A    between atoms: _411  and  _414
REMARK  160  A    between atoms: _414  and  _415
REMARK  161  A    between atoms: _425  and  _427
REMARK  162  A    between atoms: _427  and  _428
REMARK  163  A    between atoms: _427  and  _430
REMARK  164  A    between atoms: _430  and  _431
REMARK  165  A    between atoms: _437  and  _439
REMARK  166  A    between atoms: _439  and  _440
REMARK  167  A    between atoms: _439  and  _442
REMARK  168  A    between atoms: _442  and  _443
REMARK  169  A    between atoms: _448  and  _449
REMARK  170  A    between atoms: _451  and  _453
REMARK  171  A    between atoms: _453  and  _454
REMARK  172  A    between atoms: _453  and  _456
REMARK  173  A    between atoms: _456  and  _457
REMARK  174  A    between atoms: _460  and  _462
REMARK  175  A    between atoms: _462  and  _463
REMARK  176  A    between atoms: _462  and  _465
REMARK  177  A    between atoms: _465  and  _466
REMARK  178  A    between atoms: _476  and  _478
REMARK  179  A    between atoms: _478  and  _479
REMARK  180  A    between atoms: _478  and  _481
REMARK  181  A    between atoms: _481  and  _482
REMARK  182  A    between atoms: _485  and  _487
REMARK  183  A    between atoms: _487  and  _488
REMARK  184  A    between atoms: _487  and  _490
REMARK  185  A    between atoms: _490  and  _491
REMARK  186  A    between atoms: _496  and  _497
REMARK  187  A    between atoms: _499  and  _501
REMARK  188  A    between atoms: _501  and  _502
REMARK  189  A    between atoms: _501  and  _504
REMARK  190  A    between atoms: _504  and  _505
REMARK  191  A    between atoms: _511  and  _513
REMARK  192  A    between atoms: _513  and  _514
REMARK  193  A    between atoms: _517  and  _519
REMARK  194  A    between atoms: _519  and  _520
REMARK  195  A    between atoms: _519  and  _522
REMARK  196  A    between atoms: _522  and  _523
REMARK  197  A    between atoms: _525  and  _527
REMARK  198  A    between atoms: _527  and  _528
REMARK  199  A    between atoms: _530  and  _532
REMARK  200  A    between atoms: _532  and  _533
REMARK  201  A    between atoms: _532  and  _535
REMARK  202  A    between atoms: _535  and  _536
REMARK  203  A    between atoms: _536  and  _537
REMARK  204  A    between atoms: _543  and  _544
REMARK  205  A    between atoms: _549  and  _551
REMARK  206  A    between atoms: _551  and  _552
REMARK  207  A    between atoms: _551  and  _554
REMARK  208  A    between atoms: _554  and  _555
REMARK  209  A    between atoms: _560  and  _561
REMARK  210  A    between atoms: _563  and  _565
REMARK  211  A    between atoms: _565  and  _566
REMARK  212  A    between atoms: _565  and  _568
REMARK  213  A    between atoms: _568  and  _569
REMARK  214  A    between atoms: _569  and  _570
REMARK  215  A    between atoms: _570  and  _571
REMARK  216  A    between atoms: _580  and  _582
REMARK  217  A    between atoms: _582  and  _583
REMARK  218  A    between atoms: _582  and  _585
REMARK  219  A    between atoms: _585  and  _586
REMARK  220  A    between atoms: _591  and  _592
REMARK  221  A    between atoms: _594  and  _596
REMARK  222  A    between atoms: _596  and  _597
REMARK  223  A    between atoms: _596  and  _599
REMARK  224  A    between atoms: _599  and  _600
REMARK  225  A    between atoms: _600  and  _601
REMARK  226  A    between atoms: _604  and  _606
REMARK  227  A    between atoms: _606  and  _607
REMARK  228  A    between atoms: _606  and  _609
REMARK  229  A    between atoms: _609  and  _610
REMARK  230  A    between atoms: _610  and  _611
REMARK  231  A    between atoms: _611  and  _612
REMARK                            x       y       z     vdW  Elec       q    Type
REMARK                         _______ _______ _______ _____ _____    ______ ____
ROOT
ATOM      1  O   HOH     1      22.818  -4.511  17.012  0.00  0.00    +0.000 OA
ENDROOT
TORSDOF 0
REMARK  Name = ../refined-set-2016/4zb6/4zb6_pocket.pdb
REMARK  231 active torsions:
REMARK  status: ('A' for Active; 'I' for Inactive)
REMARK    1  A    between atoms: _1  and  _3
REMARK    2  A    between atoms: _3  and  _4
REMARK    3  A    between atoms: _3  and  _6
REMARK    4  A    between atoms: _6  and  _7
REMARK    5  A    between atoms: _10  and  _12
REMARK    6  A    between atoms: _12  and  _13
REMARK    7  A    between atoms: _12  and  _15
REMARK    8  A    between atoms: _15  and  _16
REMARK    9  A    between atoms: _21  and  _23
REMARK   10  A    between atoms: _23  and  _24
REMARK   11  A    between atoms: _23  and  _26
REMARK   12  A    between atoms: _26  and  _27
REMARK   13  A    between atoms: _29  and  _31
REMARK   14  A    between atoms: _31  and  _32
REMARK   15  A    between atoms: _35  and  _36
REMARK   16  A    between atoms: _41  and  _43
REMARK   17  A    between atoms: _43  and  _44
REMARK   18  A    between atoms: _43  and  _46
REMARK   19  A    between atoms: _46  and  _47
REMARK   20  A    between atoms: _52  and  _54
REMARK   21  A    between atoms: _54  and  _55
REMARK   22  A    between atoms: _57  and  _59
REMARK   23  A    between atoms: _59  and  _60
REMARK   24  A    between atoms: _59  and  _62
REMARK   25  A    between atoms: _62  and  _63
REMARK   26  A    between atoms: _73  and  _75
REMARK   27  A    between atoms: _75  and  _76
REMARK   28  A    between atoms: _75  and  _78
REMARK   29  A    between atoms: _78  and  _79
REMARK   30  A    between atoms: _79  and  _80
REMARK   31  A    between atoms: _80  and  _81
REMARK   32  A    between atoms: _81  and  _82
REMARK   33  A    between atoms: _86  and  _88
REMARK   34  A    between atoms: _88  and  _89
REMARK   35  A    between atoms: _88  and  _91
REMARK   36  A    between atoms: _94  and  _96
REMARK   37  A    between atoms: _96  and  _97
REMARK   38  A    between atoms: _96  and  _99
REMARK   39  A    between atoms: _99  and  _100
REMARK   40  A    between atoms: _103  and  _105
REMARK   41  A    between atoms: _105  and  _106
REMARK   42  A    between atoms: _105  and  _108
REMARK   43  A    between atoms: _108  and  _109
REMARK   44  A    between atoms: _112  and  _114
REMARK   45  A    between atoms: _114  and  _115
REMARK   46  A    between atoms: _114  and  _117
REMARK   47  A    between atoms: _117  and  _118
REMARK   48  A    between atoms: _118  and  _119
REMARK   49  A    between atoms: _121  and  _123
REMARK   50  A    between atoms: _123  and  _124
REMARK   51  A    between atoms: _126  and  _128
REMARK   52  A    between atoms: _128  and  _129
REMARK   53  A    between atoms: _128  and  _131
REMARK   54  A    between atoms: _131  and  _132
REMARK   55  A    between atoms: _137  and  _139
REMARK   56  A    between atoms: _139  and  _140
REMARK   57  A    between atoms: _139  and  _142
REMARK   58  A    between atoms: _142  and  _143
REMARK   59  A    between atoms: _143  and  _144
REMARK   60  A    between atoms: _144  and  _145
REMARK   61  A    between atoms: _145  and  _146
REMARK   62  A    between atoms: _150  and  _152
REMARK   63  A    between atoms: _152  and  _153
REMARK   64  A    between atoms: _152  and  _155
REMARK   65  A    between atoms: _155  and  _156
REMARK   66  A    between atoms: _161  and  _162
REMARK   67  A    between atoms: _164  and  _166
REMARK   68  A    between atoms: _166  and  _167
REMARK   69  A    between atoms: _166  and  _169
REMARK   70  A    between atoms: _169  and  _170
REMARK   71  A    between atoms: _175  and  _177
REMARK   72  A    between atoms: _177  and  _178
REMARK   73  A    between atoms: _177  and  _180
REMARK   74  A    between atoms: _180  and  _181
REMARK   75  A    between atoms: _186  and  _188
REMARK   76  A    between atoms: _188  and  _189
REMARK   77  A    between atoms: _191  and  _193
REMARK   78  A    between atoms: _193  and  _194
REMARK   79  A    between atoms: _193  and  _196
REMARK   80  A    between atoms: _196  and  _197
REMARK   81  A    between atoms: _197  and  _198
REMARK   82  A    between atoms: _198  and  _199
REMARK   83  A    between atoms: _208  and  _210
REMARK   84  A    between atoms: _210  and  _211
REMARK   85  A    between atoms: _210  and  _213
REMARK   86  A    between atoms: _217  and  _218
REMARK   87  A    between atoms: _223  and  _225
REMARK   88  A    between atoms: _225  and  _226
REMARK   89  A    between atoms: _229  and  _231
REMARK   90  A    between atoms: _231  and  _232
REMARK   91  A    between atoms: _231  and  _234
REMARK   92  A    between atoms: _234  and  _235
REMARK   93  A    between atoms: _245  and  _247
REMARK   94  A    between atoms: _247  and  _248
REMARK   95  A    between atoms: _247  and  _250
REMARK   96  A    between atoms: _250  and  _251
REMARK   97  A    between atoms: _251  and  _252
REMARK   98  A    between atoms: _255  and  _257
REMARK   99  A    between atoms: _257  and  _258
REMARK  100  A    between atoms: _257  and  _260
REMARK  101  A    between atoms: _260  and  _261
REMARK  102  A    between atoms: _263  and  _265
REMARK  103  A    between atoms: _265  and  _266
REMARK  104  A    between atoms: _265  and  _268
REMARK  105  A    between atoms: _268  and  _269
REMARK  106  A    between atoms: _274  and  _276
REMARK  107  A    between atoms: _276  and  _277
REMARK  108  A    between atoms: _280  and  _282
REMARK  109  A    between atoms: _282  and  _283
REMARK  110  A    between atoms: _282  and  _285
REMARK  111  A    between atoms: _288  and  _290
REMARK  112  A    between atoms: _290  and  _291
REMARK  113  A    between atoms: _290  and  _293
REMARK  114  A    between atoms: _293  and  _294
REMARK  115  A    between atoms: _297  and  _299
REMARK  116  A    between atoms: _299  and  _300
REMARK  117  A    between atoms: _299  and  _302
REMARK  118  A    between atoms: _302  and  _303
REMARK  119  A    between atoms: _303  and  _304
REMARK  120  A    between atoms: _309  and  _311
REMARK  121  A    between atoms: _311  and  _312
REMARK  122  A    between atoms: _315  and  _317
REMARK  123  A    between atoms: _317  and  _318
REMARK  124  A    between atoms: _317  and  _320
REMARK  125  A    between atoms: _320  and  _321
REMARK  126  A    between atoms: _323  and  _325
REMARK  127  A    between atoms: _325  and  _326
REMARK  128  A    between atoms: _328  and  _330
REMARK  129  A    between atoms: _330  and  _331
REMARK  130  A    between atoms: _330  and  _333
REMARK  131  A    between atoms: _333  and  _334
REMARK  132  A    between atoms: _334  and  _335
REMARK  133  A    between atoms: _340  and  _342
REMARK  134  A    between atoms: _342  and  _343
REMARK  135  A    between atoms: _346  and  _347
REMARK  136  A    between atoms: _352  and  _354
REMARK  137  A    between atoms: _354  and  _355
REMARK  138  A    between atoms: _354  and  _357
REMARK  139  A    between atoms: _357  and  _358
REMARK  140  A    between atoms: _363  and  _364
REMARK  141  A    between atoms: _366  and  _368
REMARK  142  A    between atoms: _368  and  _369
REMARK  143  A    between atoms: _368  and  _371
REMARK  144  A    between atoms: _371  and  _372
REMARK  145  A    between atoms: _377  and  _378
REMARK  146  A    between atoms: _380  and  _382
REMARK  147  A    between atoms: _382  and  _383
REMARK  148  A    between atoms: _385  and  _387
REMARK  149  A    between atoms: _387  and  _388
REMARK  150  A    between atoms: _387  and  _390
REMARK  151  A    between atoms: _390  and  _391
REMARK  152  A    between atoms: _391  and  _392
REMARK  153  A    between atoms: _397  and  _399
REMARK  154  A    between atoms: _399  and  _400
REMARK  155  A    between atoms: _403  and  _405
REMARK  156  A    between atoms: _405  and  _406
REMARK  157  A    between atoms: _409  and  _411
REMARK  158  A    between atoms: _411  and  _412
REMARK  159  A    between atoms: _411  and  _414
REMARK  160  A    between atoms: _414  and  _415
REMARK  161  A    between atoms: _425  and  _427
REMARK  162  A    between atoms: _427  and  _428
REMARK  163  A    between atoms: _427  and  _430
REMARK  164  A    between atoms: _430  and  _431
REMARK  165  A    between atoms: _437  and  _439
REMARK  166  A    between atoms: _439  and  _440
REMARK  167  A    between atoms: _439  and  _442
REMARK  168  A    between atoms: _442  and  _443
REMARK  169  A    between atoms: _448  and  _449
REMARK  170  A    between atoms: _451  and  _453
REMARK  171  A    between atoms: _453  and  _454
REMARK  172  A    between atoms: _453  and  _456
REMARK  173  A    between atoms: _456  and  _457
REMARK  174  A    between atoms: _460  and  _462
REMARK  175  A    between atoms: _462  and  _463
REMARK  176  A    between atoms: _462  and  _465
REMARK  177  A    between atoms: _465  and  _466
REMARK  178  A    between atoms: _476  and  _478
REMARK  179  A    between atoms: _478  and  _479
REMARK  180  A    between atoms: _478  and  _481
REMARK  181  A    between atoms: _481  and  _482
REMARK  182  A    between atoms: _485  and  _487
REMARK  183  A    between atoms: _487  and  _488
REMARK  184  A    between atoms: _487  and  _490
REMARK  185  A    between atoms: _490  and  _491
REMARK  186  A    between atoms: _496  and  _497
REMARK  187  A    between atoms: _499  and  _501
REMARK  188  A    between atoms: _501  and  _502
REMARK  189  A    between atoms: _501  and  _504
REMARK  190  A    between atoms: _504  and  _505
REMARK  191  A    between atoms: _511  and  _513
REMARK  192  A    between atoms: _513  and  _514
REMARK  193  A    between atoms: _517  and  _519
REMARK  194  A    between atoms: _519  and  _520
REMARK  195  A    between atoms: _519  and  _522
REMARK  196  A    between atoms: _522  and  _523
REMARK  197  A    between atoms: _525  and  _527
REMARK  198  A    between atoms: _527  and  _528
REMARK  199  A    between atoms: _530  and  _532
REMARK  200  A    between atoms: _532  and  _533
REMARK  201  A    between atoms: _532  and  _535
REMARK  202  A    between atoms: _535  and  _536
REMARK  203  A    between atoms: _536  and  _537
REMARK  204  A    between atoms: _543  and  _544
REMARK  205  A    between atoms: _549  and  _551
REMARK  206  A    between atoms: _551  and  _552
REMARK  207  A    between atoms: _551  and  _554
REMARK  208  A    between atoms: _554  and  _555
REMARK  209  A    between atoms: _560  and  _561
REMARK  210  A    between atoms: _563  and  _565
REMARK  211  A    between atoms: _565  and  _566
REMARK  212  A    between atoms: _565  and  _568
REMARK  213  A    between atoms: _568  and  _569
REMARK  214  A    between atoms: _569  and  _570
REMARK  215  A    between atoms: _570  and  _571
REMARK  216  A    between atoms: _580  and  _582
REMARK  217  A    between atoms: _582  and  _583
REMARK  218  A    between atoms: _582  and  _585
REMARK  219  A    between atoms: _585  and  _586
REMARK  220  A    between atoms: _591  and  _592
REMARK  221  A    between atoms: _594  and  _596
REMARK  222  A    between atoms: _596  and  _597
REMARK  223  A    between atoms: _596  and  _599
REMARK  224  A    between atoms: _599  and  _600
REMARK  225  A    between atoms: _600  and  _601
REMARK  226  A    between atoms: _604  and  _606
REMARK  227  A    between atoms: _606  and  _607
REMARK  228  A    between atoms: _606  and  _609
REMARK  229  A    between atoms: _609  and  _610
REMARK  230  A    between atoms: _610  and  _611
REMARK  231  A    between atoms: _611  and  _612
REMARK                            x       y       z     vdW  Elec       q    Type
REMARK                         _______ _______ _______ _____ _____    ______ ____
ROOT
ATOM      1  O   HOH     1      26.512   1.221  18.027  0.00  0.00    +0.000 OA
ENDROOT
TORSDOF 0
REMARK  Name = ../refined-set-2016/4zb6/4zb6_pocket.pdb
REMARK  231 active torsions:
REMARK  status: ('A' for Active; 'I' for Inactive)
REMARK    1  A    between atoms: _1  and  _3
REMARK    2  A    between atoms: _3  and  _4
REMARK    3  A    between atoms: _3  and  _6
REMARK    4  A    between atoms: _6  and  _7
REMARK    5  A    between atoms: _10  and  _12
REMARK    6  A    between atoms: _12  and  _13
REMARK    7  A    between atoms: _12  and  _15
REMARK    8  A    between atoms: _15  and  _16
REMARK    9  A    between atoms: _21  and  _23
REMARK   10  A    between atoms: _23  and  _24
REMARK   11  A    between atoms: _23  and  _26
REMARK   12  A    between atoms: _26  and  _27
REMARK   13  A    between atoms: _29  and  _31
REMARK   14  A    between atoms: _31  and  _32
REMARK   15  A    between atoms: _35  and  _36
REMARK   16  A    between atoms: _41  and  _43
REMARK   17  A    between atoms: _43  and  _44
REMARK   18  A    between atoms: _43  and  _46
REMARK   19  A    between atoms: _46  and  _47
REMARK   20  A    between atoms: _52  and  _54
REMARK   21  A    between atoms: _54  and  _55
REMARK   22  A    between atoms: _57  and  _59
REMARK   23  A    between atoms: _59  and  _60
REMARK   24  A    between atoms: _59  and  _62
REMARK   25  A    between atoms: _62  and  _63
REMARK   26  A    between atoms: _73  and  _75
REMARK   27  A    between atoms: _75  and  _76
REMARK   28  A    between atoms: _75  and  _78
REMARK   29  A    between atoms: _78  and  _79
REMARK   30  A    between atoms: _79  and  _80
REMARK   31  A    between atoms: _80  and  _81
REMARK   32  A    between atoms: _81  and  _82
REMARK   33  A    between atoms: _86  and  _88
REMARK   34  A    between atoms: _88  and  _89
REMARK   35  A    between atoms: _88  and  _91
REMARK   36  A    between atoms: _94  and  _96
REMARK   37  A    between atoms: _96  and  _97
REMARK   38  A    between atoms: _96  and  _99
REMARK   39  A    between atoms: _99  and  _100
REMARK   40  A    between atoms: _103  and  _105
REMARK   41  A    between atoms: _105  and  _106
REMARK   42  A    between atoms: _105  and  _108
REMARK   43  A    between atoms: _108  and  _109
REMARK   44  A    between atoms: _112  and  _114
REMARK   45  A    between atoms: _114  and  _115
REMARK   46  A    between atoms: _114  and  _117
REMARK   47  A    between atoms: _117  and  _118
REMARK   48  A    between atoms: _118  and  _119
REMARK   49  A    between atoms: _121  and  _123
REMARK   50  A    between atoms: _123  and  _124
REMARK   51  A    between atoms: _126  and  _128
REMARK   52  A    between atoms: _128  and  _129
REMARK   53  A    between atoms: _128  and  _131
REMARK   54  A    between atoms: _131  and  _132
REMARK   55  A    between atoms: _137  and  _139
REMARK   56  A    between atoms: _139  and  _140
REMARK   57  A    between atoms: _139  and  _142
REMARK   58  A    between atoms: _142  and  _143
REMARK   59  A    between atoms: _143  and  _144
REMARK   60  A    between atoms: _144  and  _145
REMARK   61  A    between atoms: _145  and  _146
REMARK   62  A    between atoms: _150  and  _152
REMARK   63  A    between atoms: _152  and  _153
REMARK   64  A    between atoms: _152  and  _155
REMARK   65  A    between atoms: _155  and  _156
REMARK   66  A    between atoms: _161  and  _162
REMARK   67  A    between atoms: _164  and  _166
REMARK   68  A    between atoms: _166  and  _167
REMARK   69  A    between atoms: _166  and  _169
REMARK   70  A    between atoms: _169  and  _170
REMARK   71  A    between atoms: _175  and  _177
REMARK   72  A    between atoms: _177  and  _178
REMARK   73  A    between atoms: _177  and  _180
REMARK   74  A    between atoms: _180  and  _181
REMARK   75  A    between atoms: _186  and  _188
REMARK   76  A    between atoms: _188  and  _189
REMARK   77  A    between atoms: _191  and  _193
REMARK   78  A    between atoms: _193  and  _194
REMARK   79  A    between atoms: _193  and  _196
REMARK   80  A    between atoms: _196  and  _197
REMARK   81  A    between atoms: _197  and  _198
REMARK   82  A    between atoms: _198  and  _199
REMARK   83  A    between atoms: _208  and  _210
REMARK   84  A    between atoms: _210  and  _211
REMARK   85  A    between atoms: _210  and  _213
REMARK   86  A    between atoms: _217  and  _218
REMARK   87  A    between atoms: _223  and  _225
REMARK   88  A    between atoms: _225  and  _226
REMARK   89  A    between atoms: _229  and  _231
REMARK   90  A    between atoms: _231  and  _232
REMARK   91  A    between atoms: _231  and  _234
REMARK   92  A    between atoms: _234  and  _235
REMARK   93  A    between atoms: _245  and  _247
REMARK   94  A    between atoms: _247  and  _248
REMARK   95  A    between atoms: _247  and  _250
REMARK   96  A    between atoms: _250  and  _251
REMARK   97  A    between atoms: _251  and  _252
REMARK   98  A    between atoms: _255  and  _257
REMARK   99  A    between atoms: _257  and  _258
REMARK  100  A    between atoms: _257  and  _260
REMARK  101  A    between atoms: _260  and  _261
REMARK  102  A    between atoms: _263  and  _265
REMARK  103  A    between atoms: _265  and  _266
REMARK  104  A    between atoms: _265  and  _268
REMARK  105  A    between atoms: _268  and  _269
REMARK  106  A    between atoms: _274  and  _276
REMARK  107  A    between atoms: _276  and  _277
REMARK  108  A    between atoms: _280  and  _282
REMARK  109  A    between atoms: _282  and  _283
REMARK  110  A    between atoms: _282  and  _285
REMARK  111  A    between atoms: _288  and  _290
REMARK  112  A    between atoms: _290  and  _291
REMARK  113  A    between atoms: _290  and  _293
REMARK  114  A    between atoms: _293  and  _294
REMARK  115  A    between atoms: _297  and  _299
REMARK  116  A    between atoms: _299  and  _300
REMARK  117  A    between atoms: _299  and  _302
REMARK  118  A    between atoms: _302  and  _303
REMARK  119  A    between atoms: _303  and  _304
REMARK  120  A    between atoms: _309  and  _311
REMARK  121  A    between atoms: _311  and  _312
REMARK  122  A    between atoms: _315  and  _317
REMARK  123  A    between atoms: _317  and  _318
REMARK  124  A    between atoms: _317  and  _320
REMARK  125  A    between atoms: _320  and  _321
REMARK  126  A    between atoms: _323  and  _325
REMARK  127  A    between atoms: _325  and  _326
REMARK  128  A    between atoms: _328  and  _330
REMARK  129  A    between atoms: _330  and  _331
REMARK  130  A    between atoms: _330  and  _333
REMARK  131  A    between atoms: _333  and  _334
REMARK  132  A    between atoms: _334  and  _335
REMARK  133  A    between atoms: _340  and  _342
REMARK  134  A    between atoms: _342  and  _343
REMARK  135  A    between atoms: _346  and  _347
REMARK  136  A    between atoms: _352  and  _354
REMARK  137  A    between atoms: _354  and  _355
REMARK  138  A    between atoms: _354  and  _357
REMARK  139  A    between atoms: _357  and  _358
REMARK  140  A    between atoms: _363  and  _364
REMARK  141  A    between atoms: _366  and  _368
REMARK  142  A    between atoms: _368  and  _369
REMARK  143  A    between atoms: _368  and  _371
REMARK  144  A    between atoms: _371  and  _372
REMARK  145  A    between atoms: _377  and  _378
REMARK  146  A    between atoms: _380  and  _382
REMARK  147  A    between atoms: _382  and  _383
REMARK  148  A    between atoms: _385  and  _387
REMARK  149  A    between atoms: _387  and  _388
REMARK  150  A    between atoms: _387  and  _390
REMARK  151  A    between atoms: _390  and  _391
REMARK  152  A    between atoms: _391  and  _392
REMARK  153  A    between atoms: _397  and  _399
REMARK  154  A    between atoms: _399  and  _400
REMARK  155  A    between atoms: _403  and  _405
REMARK  156  A    between atoms: _405  and  _406
REMARK  157  A    between atoms: _409  and  _411
REMARK  158  A    between atoms: _411  and  _412
REMARK  159  A    between atoms: _411  and  _414
REMARK  160  A    between atoms: _414  and  _415
REMARK  161  A    between atoms: _425  and  _427
REMARK  162  A    between atoms: _427  and  _428
REMARK  163  A    between atoms: _427  and  _430
REMARK  164  A    between atoms: _430  and  _431
REMARK  165  A    between atoms: _437  and  _439
REMARK  166  A    between atoms: _439  and  _440
REMARK  167  A    between atoms: _439  and  _442
REMARK  168  A    between atoms: _442  and  _443
REMARK  169  A    between atoms: _448  and  _449
REMARK  170  A    between atoms: _451  and  _453
REMARK  171  A    between atoms: _453  and  _454
REMARK  172  A    between atoms: _453  and  _456
REMARK  173  A    between atoms: _456  and  _457
REMARK  174  A    between atoms: _460  and  _462
REMARK  175  A    between atoms: _462  and  _463
REMARK  176  A    between atoms: _462  and  _465
REMARK  177  A    between atoms: _465  and  _466
REMARK  178  A    between atoms: _476  and  _478
REMARK  179  A    between atoms: _478  and  _479
REMARK  180  A    between atoms: _478  and  _481
REMARK  181  A    between atoms: _481  and  _482
REMARK  182  A    between atoms: _485  and  _487
REMARK  183  A    between atoms: _487  and  _488
REMARK  184  A    between atoms: _487  and  _490
REMARK  185  A    between atoms: _490  and  _491
REMARK  186  A    between atoms: _496  and  _497
REMARK  187  A    between atoms: _499  and  _501
REMARK  188  A    between atoms: _501  and  _502
REMARK  189  A    between atoms: _501  and  _504
REMARK  190  A    between atoms: _504  and  _505
REMARK  191  A    between atoms: _511  and  _513
REMARK  192  A    between atoms: _513  and  _514
REMARK  193  A    between atoms: _517  and  _519
REMARK  194  A    between atoms: _519  and  _520
REMARK  195  A    between atoms: _519  and  _522
REMARK  196  A    between atoms: _522  and  _523
REMARK  197  A    between atoms: _525  and  _527
REMARK  198  A    between atoms: _527  and  _528
REMARK  199  A    between atoms: _530  and  _532
REMARK  200  A    between atoms: _532  and  _533
REMARK  201  A    between atoms: _532  and  _535
REMARK  202  A    between atoms: _535  and  _536
REMARK  203  A    between atoms: _536  and  _537
REMARK  204  A    between atoms: _543  and  _544
REMARK  205  A    between atoms: _549  and  _551
REMARK  206  A    between atoms: _551  and  _552
REMARK  207  A    between atoms: _551  and  _554
REMARK  208  A    between atoms: _554  and  _555
REMARK  209  A    between atoms: _560  and  _561
REMARK  210  A    between atoms: _563  and  _565
REMARK  211  A    between atoms: _565  and  _566
REMARK  212  A    between atoms: _565  and  _568
REMARK  213  A    between atoms: _568  and  _569
REMARK  214  A    between atoms: _569  and  _570
REMARK  215  A    between atoms: _570  and  _571
REMARK  216  A    between atoms: _580  and  _582
REMARK  217  A    between atoms: _582  and  _583
REMARK  218  A    between atoms: _582  and  _585
REMARK  219  A    between atoms: _585  and  _586
REMARK  220  A    between atoms: _591  and  _592
REMARK  221  A    between atoms: _594  and  _596
REMARK  222  A    between atoms: _596  and  _597
REMARK  223  A    between atoms: _596  and  _599
REMARK  224  A    between atoms: _599  and  _600
REMARK  225  A    between atoms: _600  and  _601
REMARK  226  A    between atoms: _604  and  _606
REMARK  227  A    between atoms: _606  and  _607
REMARK  228  A    between atoms: _606  and  _609
REMARK  229  A    between atoms: _609  and  _610
REMARK  230  A    between atoms: _610  and  _611
REMARK  231  A    between atoms: _611  and  _612
REMARK                            x       y       z     vdW  Elec       q    Type
REMARK                         _______ _______ _______ _____ _____    ______ ____
ROOT
ATOM      1  O   HOH     1      22.701  -6.916  18.147  0.00  0.00    +0.000 OA
ENDROOT
TORSDOF 0
REMARK  Name = ../refined-set-2016/4zb6/4zb6_pocket.pdb
REMARK  231 active torsions:
REMARK  status: ('A' for Active; 'I' for Inactive)
REMARK    1  A    between atoms: _1  and  _3
REMARK    2  A    between atoms: _3  and  _4
REMARK    3  A    between atoms: _3  and  _6
REMARK    4  A    between atoms: _6  and  _7
REMARK    5  A    between atoms: _10  and  _12
REMARK    6  A    between atoms: _12  and  _13
REMARK    7  A    between atoms: _12  and  _15
REMARK    8  A    between atoms: _15  and  _16
REMARK    9  A    between atoms: _21  and  _23
REMARK   10  A    between atoms: _23  and  _24
REMARK   11  A    between atoms: _23  and  _26
REMARK   12  A    between atoms: _26  and  _27
REMARK   13  A    between atoms: _29  and  _31
REMARK   14  A    between atoms: _31  and  _32
REMARK   15  A    between atoms: _35  and  _36
REMARK   16  A    between atoms: _41  and  _43
REMARK   17  A    between atoms: _43  and  _44
REMARK   18  A    between atoms: _43  and  _46
REMARK   19  A    between atoms: _46  and  _47
REMARK   20  A    between atoms: _52  and  _54
REMARK   21  A    between atoms: _54  and  _55
REMARK   22  A    between atoms: _57  and  _59
REMARK   23  A    between atoms: _59  and  _60
REMARK   24  A    between atoms: _59  and  _62
REMARK   25  A    between atoms: _62  and  _63
REMARK   26  A    between atoms: _73  and  _75
REMARK   27  A    between atoms: _75  and  _76
REMARK   28  A    between atoms: _75  and  _78
REMARK   29  A    between atoms: _78  and  _79
REMARK   30  A    between atoms: _79  and  _80
REMARK   31  A    between atoms: _80  and  _81
REMARK   32  A    between atoms: _81  and  _82
REMARK   33  A    between atoms: _86  and  _88
REMARK   34  A    between atoms: _88  and  _89
REMARK   35  A    between atoms: _88  and  _91
REMARK   36  A    between atoms: _94  and  _96
REMARK   37  A    between atoms: _96  and  _97
REMARK   38  A    between atoms: _96  and  _99
REMARK   39  A    between atoms: _99  and  _100
REMARK   40  A    between atoms: _103  and  _105
REMARK   41  A    between atoms: _105  and  _106
REMARK   42  A    between atoms: _105  and  _108
REMARK   43  A    between atoms: _108  and  _109
REMARK   44  A    between atoms: _112  and  _114
REMARK   45  A    between atoms: _114  and  _115
REMARK   46  A    between atoms: _114  and  _117
REMARK   47  A    between atoms: _117  and  _118
REMARK   48  A    between atoms: _118  and  _119
REMARK   49  A    between atoms: _121  and  _123
REMARK   50  A    between atoms: _123  and  _124
REMARK   51  A    between atoms: _126  and  _128
REMARK   52  A    between atoms: _128  and  _129
REMARK   53  A    between atoms: _128  and  _131
REMARK   54  A    between atoms: _131  and  _132
REMARK   55  A    between atoms: _137  and  _139
REMARK   56  A    between atoms: _139  and  _140
REMARK   57  A    between atoms: _139  and  _142
REMARK   58  A    between atoms: _142  and  _143
REMARK   59  A    between atoms: _143  and  _144
REMARK   60  A    between atoms: _144  and  _145
REMARK   61  A    between atoms: _145  and  _146
REMARK   62  A    between atoms: _150  and  _152
REMARK   63  A    between atoms: _152  and  _153
REMARK   64  A    between atoms: _152  and  _155
REMARK   65  A    between atoms: _155  and  _156
REMARK   66  A    between atoms: _161  and  _162
REMARK   67  A    between atoms: _164  and  _166
REMARK   68  A    between atoms: _166  and  _167
REMARK   69  A    between atoms: _166  and  _169
REMARK   70  A    between atoms: _169  and  _170
REMARK   71  A    between atoms: _175  and  _177
REMARK   72  A    between atoms: _177  and  _178
REMARK   73  A    between atoms: _177  and  _180
REMARK   74  A    between atoms: _180  and  _181
REMARK   75  A    between atoms: _186  and  _188
REMARK   76  A    between atoms: _188  and  _189
REMARK   77  A    between atoms: _191  and  _193
REMARK   78  A    between atoms: _193  and  _194
REMARK   79  A    between atoms: _193  and  _196
REMARK   80  A    between atoms: _196  and  _197
REMARK   81  A    between atoms: _197  and  _198
REMARK   82  A    between atoms: _198  and  _199
REMARK   83  A    between atoms: _208  and  _210
REMARK   84  A    between atoms: _210  and  _211
REMARK   85  A    between atoms: _210  and  _213
REMARK   86  A    between atoms: _217  and  _218
REMARK   87  A    between atoms: _223  and  _225
REMARK   88  A    between atoms: _225  and  _226
REMARK   89  A    between atoms: _229  and  _231
REMARK   90  A    between atoms: _231  and  _232
REMARK   91  A    between atoms: _231  and  _234
REMARK   92  A    between atoms: _234  and  _235
REMARK   93  A    between atoms: _245  and  _247
REMARK   94  A    between atoms: _247  and  _248
REMARK   95  A    between atoms: _247  and  _250
REMARK   96  A    between atoms: _250  and  _251
REMARK   97  A    between atoms: _251  and  _252
REMARK   98  A    between atoms: _255  and  _257
REMARK   99  A    between atoms: _257  and  _258
REMARK  100  A    between atoms: _257  and  _260
REMARK  101  A    between atoms: _260  and  _261
REMARK  102  A    between atoms: _263  and  _265
REMARK  103  A    between atoms: _265  and  _266
REMARK  104  A    between atoms: _265  and  _268
REMARK  105  A    between atoms: _268  and  _269
REMARK  106  A    between atoms: _274  and  _276
REMARK  107  A    between atoms: _276  and  _277
REMARK  108  A    between atoms: _280  and  _282
REMARK  109  A    between atoms: _282  and  _283
REMARK  110  A    between atoms: _282  and  _285
REMARK  111  A    between atoms: _288  and  _290
REMARK  112  A    between atoms: _290  and  _291
REMARK  113  A    between atoms: _290  and  _293
REMARK  114  A    between atoms: _293  and  _294
REMARK  115  A    between atoms: _297  and  _299
REMARK  116  A    between atoms: _299  and  _300
REMARK  117  A    between atoms: _299  and  _302
REMARK  118  A    between atoms: _302  and  _303
REMARK  119  A    between atoms: _303  and  _304
REMARK  120  A    between atoms: _309  and  _311
REMARK  121  A    between atoms: _311  and  _312
REMARK  122  A    between atoms: _315  and  _317
REMARK  123  A    between atoms: _317  and  _318
REMARK  124  A    between atoms: _317  and  _320
REMARK  125  A    between atoms: _320  and  _321
REMARK  126  A    between atoms: _323  and  _325
REMARK  127  A    between atoms: _325  and  _326
REMARK  128  A    between atoms: _328  and  _330
REMARK  129  A    between atoms: _330  and  _331
REMARK  130  A    between atoms: _330  and  _333
REMARK  131  A    between atoms: _333  and  _334
REMARK  132  A    between atoms: _334  and  _335
REMARK  133  A    between atoms: _340  and  _342
REMARK  134  A    between atoms: _342  and  _343
REMARK  135  A    between atoms: _346  and  _347
REMARK  136  A    between atoms: _352  and  _354
REMARK  137  A    between atoms: _354  and  _355
REMARK  138  A    between atoms: _354  and  _357
REMARK  139  A    between atoms: _357  and  _358
REMARK  140  A    between atoms: _363  and  _364
REMARK  141  A    between atoms: _366  and  _368
REMARK  142  A    between atoms: _368  and  _369
REMARK  143  A    between atoms: _368  and  _371
REMARK  144  A    between atoms: _371  and  _372
REMARK  145  A    between atoms: _377  and  _378
REMARK  146  A    between atoms: _380  and  _382
REMARK  147  A    between atoms: _382  and  _383
REMARK  148  A    between atoms: _385  and  _387
REMARK  149  A    between atoms: _387  and  _388
REMARK  150  A    between atoms: _387  and  _390
REMARK  151  A    between atoms: _390  and  _391
REMARK  152  A    between atoms: _391  and  _392
REMARK  153  A    between atoms: _397  and  _399
REMARK  154  A    between atoms: _399  and  _400
REMARK  155  A    between atoms: _403  and  _405
REMARK  156  A    between atoms: _405  and  _406
REMARK  157  A    between atoms: _409  and  _411
REMARK  158  A    between atoms: _411  and  _412
REMARK  159  A    between atoms: _411  and  _414
REMARK  160  A    between atoms: _414  and  _415
REMARK  161  A    between atoms: _425  and  _427
REMARK  162  A    between atoms: _427  and  _428
REMARK  163  A    between atoms: _427  and  _430
REMARK  164  A    between atoms: _430  and  _431
REMARK  165  A    between atoms: _437  and  _439
REMARK  166  A    between atoms: _439  and  _440
REMARK  167  A    between atoms: _439  and  _442
REMARK  168  A    between atoms: _442  and  _443
REMARK  169  A    between atoms: _448  and  _449
REMARK  170  A    between atoms: _451  and  _453
REMARK  171  A    between atoms: _453  and  _454
REMARK  172  A    between atoms: _453  and  _456
REMARK  173  A    between atoms: _456  and  _457
REMARK  174  A    between atoms: _460  and  _462
REMARK  175  A    between atoms: _462  and  _463
REMARK  176  A    between atoms: _462  and  _465
REMARK  177  A    between atoms: _465  and  _466
REMARK  178  A    between atoms: _476  and  _478
REMARK  179  A    between atoms: _478  and  _479
REMARK  180  A    between atoms: _478  and  _481
REMARK  181  A    between atoms: _481  and  _482
REMARK  182  A    between atoms: _485  and  _487
REMARK  183  A    between atoms: _487  and  _488
REMARK  184  A    between atoms: _487  and  _490
REMARK  185  A    between atoms: _490  and  _491
REMARK  186  A    between atoms: _496  and  _497
REMARK  187  A    between atoms: _499  and  _501
REMARK  188  A    between atoms: _501  and  _502
REMARK  189  A    between atoms: _501  and  _504
REMARK  190  A    between atoms: _504  and  _505
REMARK  191  A    between atoms: _511  and  _513
REMARK  192  A    between atoms: _513  and  _514
REMARK  193  A    between atoms: _517  and  _519
REMARK  194  A    between atoms: _519  and  _520
REMARK  195  A    between atoms: _519  and  _522
REMARK  196  A    between atoms: _522  and  _523
REMARK  197  A    between atoms: _525  and  _527
REMARK  198  A    between atoms: _527  and  _528
REMARK  199  A    between atoms: _530  and  _532
REMARK  200  A    between atoms: _532  and  _533
REMARK  201  A    between atoms: _532  and  _535
REMARK  202  A    between atoms: _535  and  _536
REMARK  203  A    between atoms: _536  and  _537
REMARK  204  A    between atoms: _543  and  _544
REMARK  205  A    between atoms: _549  and  _551
REMARK  206  A    between atoms: _551  and  _552
REMARK  207  A    between atoms: _551  and  _554
REMARK  208  A    between atoms: _554  and  _555
REMARK  209  A    between atoms: _560  and  _561
REMARK  210  A    between atoms: _563  and  _565
REMARK  211  A    between atoms: _565  and  _566
REMARK  212  A    between atoms: _565  and  _568
REMARK  213  A    between atoms: _568  and  _569
REMARK  214  A    between atoms: _569  and  _570
REMARK  215  A    between atoms: _570  and  _571
REMARK  216  A    between atoms: _580  and  _582
REMARK  217  A    between atoms: _582  and  _583
REMARK  218  A    between atoms: _582  and  _585
REMARK  219  A    between atoms: _585  and  _586
REMARK  220  A    between atoms: _591  and  _592
REMARK  221  A    between atoms: _594  and  _596
REMARK  222  A    between atoms: _596  and  _597
REMARK  223  A    between atoms: _596  and  _599
REMARK  224  A    between atoms: _599  and  _600
REMARK  225  A    between atoms: _600  and  _601
REMARK  226  A    between atoms: _604  and  _606
REMARK  227  A    between atoms: _606  and  _607
REMARK  228  A    between atoms: _606  and  _609
REMARK  229  A    between atoms: _609  and  _610
REMARK  230  A    between atoms: _610  and  _611
REMARK  231  A    between atoms: _611  and  _612
REMARK                            x       y       z     vdW  Elec       q    Type
REMARK                         _______ _______ _______ _____ _____    ______ ____
ROOT
ATOM      1  O   HOH     1      32.073  -4.388  16.103  0.00  0.00    +0.000 OA
ENDROOT
TORSDOF 0
REMARK  Name = ../refined-set-2016/4zb6/4zb6_pocket.pdb
REMARK  231 active torsions:
REMARK  status: ('A' for Active; 'I' for Inactive)
REMARK    1  A    between atoms: _1  and  _3
REMARK    2  A    between atoms: _3  and  _4
REMARK    3  A    between atoms: _3  and  _6
REMARK    4  A    between atoms: _6  and  _7
REMARK    5  A    between atoms: _10  and  _12
REMARK    6  A    between atoms: _12  and  _13
REMARK    7  A    between atoms: _12  and  _15
REMARK    8  A    between atoms: _15  and  _16
REMARK    9  A    between atoms: _21  and  _23
REMARK   10  A    between atoms: _23  and  _24
REMARK   11  A    between atoms: _23  and  _26
REMARK   12  A    between atoms: _26  and  _27
REMARK   13  A    between atoms: _29  and  _31
REMARK   14  A    between atoms: _31  and  _32
REMARK   15  A    between atoms: _35  and  _36
REMARK   16  A    between atoms: _41  and  _43
REMARK   17  A    between atoms: _43  and  _44
REMARK   18  A    between atoms: _43  and  _46
REMARK   19  A    between atoms: _46  and  _47
REMARK   20  A    between atoms: _52  and  _54
REMARK   21  A    between atoms: _54  and  _55
REMARK   22  A    between atoms: _57  and  _59
REMARK   23  A    between atoms: _59  and  _60
REMARK   24  A    between atoms: _59  and  _62
REMARK   25  A    between atoms: _62  and  _63
REMARK   26  A    between atoms: _73  and  _75
REMARK   27  A    between atoms: _75  and  _76
REMARK   28  A    between atoms: _75  and  _78
REMARK   29  A    between atoms: _78  and  _79
REMARK   30  A    between atoms: _79  and  _80
REMARK   31  A    between atoms: _80  and  _81
REMARK   32  A    between atoms: _81  and  _82
REMARK   33  A    between atoms: _86  and  _88
REMARK   34  A    between atoms: _88  and  _89
REMARK   35  A    between atoms: _88  and  _91
REMARK   36  A    between atoms: _94  and  _96
REMARK   37  A    between atoms: _96  and  _97
REMARK   38  A    between atoms: _96  and  _99
REMARK   39  A    between atoms: _99  and  _100
REMARK   40  A    between atoms: _103  and  _105
REMARK   41  A    between atoms: _105  and  _106
REMARK   42  A    between atoms: _105  and  _108
REMARK   43  A    between atoms: _108  and  _109
REMARK   44  A    between atoms: _112  and  _114
REMARK   45  A    between atoms: _114  and  _115
REMARK   46  A    between atoms: _114  and  _117
REMARK   47  A    between atoms: _117  and  _118
REMARK   48  A    between atoms: _118  and  _119
REMARK   49  A    between atoms: _121  and  _123
REMARK   50  A    between atoms: _123  and  _124
REMARK   51  A    between atoms: _126  and  _128
REMARK   52  A    between atoms: _128  and  _129
REMARK   53  A    between atoms: _128  and  _131
REMARK   54  A    between atoms: _131  and  _132
REMARK   55  A    between atoms: _137  and  _139
REMARK   56  A    between atoms: _139  and  _140
REMARK   57  A    between atoms: _139  and  _142
REMARK   58  A    between atoms: _142  and  _143
REMARK   59  A    between atoms: _143  and  _144
REMARK   60  A    between atoms: _144  and  _145
REMARK   61  A    between atoms: _145  and  _146
REMARK   62  A    between atoms: _150  and  _152
REMARK   63  A    between atoms: _152  and  _153
REMARK   64  A    between atoms: _152  and  _155
REMARK   65  A    between atoms: _155  and  _156
REMARK   66  A    between atoms: _161  and  _162
REMARK   67  A    between atoms: _164  and  _166
REMARK   68  A    between atoms: _166  and  _167
REMARK   69  A    between atoms: _166  and  _169
REMARK   70  A    between atoms: _169  and  _170
REMARK   71  A    between atoms: _175  and  _177
REMARK   72  A    between atoms: _177  and  _178
REMARK   73  A    between atoms: _177  and  _180
REMARK   74  A    between atoms: _180  and  _181
REMARK   75  A    between atoms: _186  and  _188
REMARK   76  A    between atoms: _188  and  _189
REMARK   77  A    between atoms: _191  and  _193
REMARK   78  A    between atoms: _193  and  _194
REMARK   79  A    between atoms: _193  and  _196
REMARK   80  A    between atoms: _196  and  _197
REMARK   81  A    between atoms: _197  and  _198
REMARK   82  A    between atoms: _198  and  _199
REMARK   83  A    between atoms: _208  and  _210
REMARK   84  A    between atoms: _210  and  _211
REMARK   85  A    between atoms: _210  and  _213
REMARK   86  A    between atoms: _217  and  _218
REMARK   87  A    between atoms: _223  and  _225
REMARK   88  A    between atoms: _225  and  _226
REMARK   89  A    between atoms: _229  and  _231
REMARK   90  A    between atoms: _231  and  _232
REMARK   91  A    between atoms: _231  and  _234
REMARK   92  A    between atoms: _234  and  _235
REMARK   93  A    between atoms: _245  and  _247
REMARK   94  A    between atoms: _247  and  _248
REMARK   95  A    between atoms: _247  and  _250
REMARK   96  A    between atoms: _250  and  _251
REMARK   97  A    between atoms: _251  and  _252
REMARK   98  A    between atoms: _255  and  _257
REMARK   99  A    between atoms: _257  and  _258
REMARK  100  A    between atoms: _257  and  _260
REMARK  101  A    between atoms: _260  and  _261
REMARK  102  A    between atoms: _263  and  _265
REMARK  103  A    between atoms: _265  and  _266
REMARK  104  A    between atoms: _265  and  _268
REMARK  105  A    between atoms: _268  and  _269
REMARK  106  A    between atoms: _274  and  _276
REMARK  107  A    between atoms: _276  and  _277
REMARK  108  A    between atoms: _280  and  _282
REMARK  109  A    between atoms: _282  and  _283
REMARK  110  A    between atoms: _282  and  _285
REMARK  111  A    between atoms: _288  and  _290
REMARK  112  A    between atoms: _290  and  _291
REMARK  113  A    between atoms: _290  and  _293
REMARK  114  A    between atoms: _293  and  _294
REMARK  115  A    between atoms: _297  and  _299
REMARK  116  A    between atoms: _299  and  _300
REMARK  117  A    between atoms: _299  and  _302
REMARK  118  A    between atoms: _302  and  _303
REMARK  119  A    between atoms: _303  and  _304
REMARK  120  A    between atoms: _309  and  _311
REMARK  121  A    between atoms: _311  and  _312
REMARK  122  A    between atoms: _315  and  _317
REMARK  123  A    between atoms: _317  and  _318
REMARK  124  A    between atoms: _317  and  _320
REMARK  125  A    between atoms: _320  and  _321
REMARK  126  A    between atoms: _323  and  _325
REMARK  127  A    between atoms: _325  and  _326
REMARK  128  A    between atoms: _328  and  _330
REMARK  129  A    between atoms: _330  and  _331
REMARK  130  A    between atoms: _330  and  _333
REMARK  131  A    between atoms: _333  and  _334
REMARK  132  A    between atoms: _334  and  _335
REMARK  133  A    between atoms: _340  and  _342
REMARK  134  A    between atoms: _342  and  _343
REMARK  135  A    between atoms: _346  and  _347
REMARK  136  A    between atoms: _352  and  _354
REMARK  137  A    between atoms: _354  and  _355
REMARK  138  A    between atoms: _354  and  _357
REMARK  139  A    between atoms: _357  and  _358
REMARK  140  A    between atoms: _363  and  _364
REMARK  141  A    between atoms: _366  and  _368
REMARK  142  A    between atoms: _368  and  _369
REMARK  143  A    between atoms: _368  and  _371
REMARK  144  A    between atoms: _371  and  _372
REMARK  145  A    between atoms: _377  and  _378
REMARK  146  A    between atoms: _380  and  _382
REMARK  147  A    between atoms: _382  and  _383
REMARK  148  A    between atoms: _385  and  _387
REMARK  149  A    between atoms: _387  and  _388
REMARK  150  A    between atoms: _387  and  _390
REMARK  151  A    between atoms: _390  and  _391
REMARK  152  A    between atoms: _391  and  _392
REMARK  153  A    between atoms: _397  and  _399
REMARK  154  A    between atoms: _399  and  _400
REMARK  155  A    between atoms: _403  and  _405
REMARK  156  A    between atoms: _405  and  _406
REMARK  157  A    between atoms: _409  and  _411
REMARK  158  A    between atoms: _411  and  _412
REMARK  159  A    between atoms: _411  and  _414
REMARK  160  A    between atoms: _414  and  _415
REMARK  161  A    between atoms: _425  and  _427
REMARK  162  A    between atoms: _427  and  _428
REMARK  163  A    between atoms: _427  and  _430
REMARK  164  A    between atoms: _430  and  _431
REMARK  165  A    between atoms: _437  and  _439
REMARK  166  A    between atoms: _439  and  _440
REMARK  167  A    between atoms: _439  and  _442
REMARK  168  A    between atoms: _442  and  _443
REMARK  169  A    between atoms: _448  and  _449
REMARK  170  A    between atoms: _451  and  _453
REMARK  171  A    between atoms: _453  and  _454
REMARK  172  A    between atoms: _453  and  _456
REMARK  173  A    between atoms: _456  and  _457
REMARK  174  A    between atoms: _460  and  _462
REMARK  175  A    between atoms: _462  and  _463
REMARK  176  A    between atoms: _462  and  _465
REMARK  177  A    between atoms: _465  and  _466
REMARK  178  A    between atoms: _476  and  _478
REMARK  179  A    between atoms: _478  and  _479
REMARK  180  A    between atoms: _478  and  _481
REMARK  181  A    between atoms: _481  and  _482
REMARK  182  A    between atoms: _485  and  _487
REMARK  183  A    between atoms: _487  and  _488
REMARK  184  A    between atoms: _487  and  _490
REMARK  185  A    between atoms: _490  and  _491
REMARK  186  A    between atoms: _496  and  _497
REMARK  187  A    between atoms: _499  and  _501
REMARK  188  A    between atoms: _501  and  _502
REMARK  189  A    between atoms: _501  and  _504
REMARK  190  A    between atoms: _504  and  _505
REMARK  191  A    between atoms: _511  and  _513
REMARK  192  A    between atoms: _513  and  _514
REMARK  193  A    between atoms: _517  and  _519
REMARK  194  A    between atoms: _519  and  _520
REMARK  195  A    between atoms: _519  and  _522
REMARK  196  A    between atoms: _522  and  _523
REMARK  197  A    between atoms: _525  and  _527
REMARK  198  A    between atoms: _527  and  _528
REMARK  199  A    between atoms: _530  and  _532
REMARK  200  A    between atoms: _532  and  _533
REMARK  201  A    between atoms: _532  and  _535
REMARK  202  A    between atoms: _535  and  _536
REMARK  203  A    between atoms: _536  and  _537
REMARK  204  A    between atoms: _543  and  _544
REMARK  205  A    between atoms: _549  and  _551
REMARK  206  A    between atoms: _551  and  _552
REMARK  207  A    between atoms: _551  and  _554
REMARK  208  A    between atoms: _554  and  _555
REMARK  209  A    between atoms: _560  and  _561
REMARK  210  A    between atoms: _563  and  _565
REMARK  211  A    between atoms: _565  and  _566
REMARK  212  A    between atoms: _565  and  _568
REMARK  213  A    between atoms: _568  and  _569
REMARK  214  A    between atoms: _569  and  _570
REMARK  215  A    between atoms: _570  and  _571
REMARK  216  A    between atoms: _580  and  _582
REMARK  217  A    between atoms: _582  and  _583
REMARK  218  A    between atoms: _582  and  _585
REMARK  219  A    between atoms: _585  and  _586
REMARK  220  A    between atoms: _591  and  _592
REMARK  221  A    between atoms: _594  and  _596
REMARK  222  A    between atoms: _596  and  _597
REMARK  223  A    between atoms: _596  and  _599
REMARK  224  A    between atoms: _599  and  _600
REMARK  225  A    between atoms: _600  and  _601
REMARK  226  A    between atoms: _604  and  _606
REMARK  227  A    between atoms: _606  and  _607
REMARK  228  A    between atoms: _606  and  _609
REMARK  229  A    between atoms: _609  and  _610
REMARK  230  A    between atoms: _610  and  _611
REMARK  231  A    between atoms: _611  and  _612
REMARK                            x       y       z     vdW  Elec       q    Type
REMARK                         _______ _______ _______ _____ _____    ______ ____
ROOT
ATOM      1  O   HOH     1      24.811   4.915  14.494  0.00  0.00    +0.000 OA
ENDROOT
TORSDOF 0
REMARK  Name = ../refined-set-2016/4zb6/4zb6_pocket.pdb
REMARK  231 active torsions:
REMARK  status: ('A' for Active; 'I' for Inactive)
REMARK    1  A    between atoms: _1  and  _3
REMARK    2  A    between atoms: _3  and  _4
REMARK    3  A    between atoms: _3  and  _6
REMARK    4  A    between atoms: _6  and  _7
REMARK    5  A    between atoms: _10  and  _12
REMARK    6  A    between atoms: _12  and  _13
REMARK    7  A    between atoms: _12  and  _15
REMARK    8  A    between atoms: _15  and  _16
REMARK    9  A    between atoms: _21  and  _23
REMARK   10  A    between atoms: _23  and  _24
REMARK   11  A    between atoms: _23  and  _26
REMARK   12  A    between atoms: _26  and  _27
REMARK   13  A    between atoms: _29  and  _31
REMARK   14  A    between atoms: _31  and  _32
REMARK   15  A    between atoms: _35  and  _36
REMARK   16  A    between atoms: _41  and  _43
REMARK   17  A    between atoms: _43  and  _44
REMARK   18  A    between atoms: _43  and  _46
REMARK   19  A    between atoms: _46  and  _47
REMARK   20  A    between atoms: _52  and  _54
REMARK   21  A    between atoms: _54  and  _55
REMARK   22  A    between atoms: _57  and  _59
REMARK   23  A    between atoms: _59  and  _60
REMARK   24  A    between atoms: _59  and  _62
REMARK   25  A    between atoms: _62  and  _63
REMARK   26  A    between atoms: _73  and  _75
REMARK   27  A    between atoms: _75  and  _76
REMARK   28  A    between atoms: _75  and  _78
REMARK   29  A    between atoms: _78  and  _79
REMARK   30  A    between atoms: _79  and  _80
REMARK   31  A    between atoms: _80  and  _81
REMARK   32  A    between atoms: _81  and  _82
REMARK   33  A    between atoms: _86  and  _88
REMARK   34  A    between atoms: _88  and  _89
REMARK   35  A    between atoms: _88  and  _91
REMARK   36  A    between atoms: _94  and  _96
REMARK   37  A    between atoms: _96  and  _97
REMARK   38  A    between atoms: _96  and  _99
REMARK   39  A    between atoms: _99  and  _100
REMARK   40  A    between atoms: _103  and  _105
REMARK   41  A    between atoms: _105  and  _106
REMARK   42  A    between atoms: _105  and  _108
REMARK   43  A    between atoms: _108  and  _109
REMARK   44  A    between atoms: _112  and  _114
REMARK   45  A    between atoms: _114  and  _115
REMARK   46  A    between atoms: _114  and  _117
REMARK   47  A    between atoms: _117  and  _118
REMARK   48  A    between atoms: _118  and  _119
REMARK   49  A    between atoms: _121  and  _123
REMARK   50  A    between atoms: _123  and  _124
REMARK   51  A    between atoms: _126  and  _128
REMARK   52  A    between atoms: _128  and  _129
REMARK   53  A    between atoms: _128  and  _131
REMARK   54  A    between atoms: _131  and  _132
REMARK   55  A    between atoms: _137  and  _139
REMARK   56  A    between atoms: _139  and  _140
REMARK   57  A    between atoms: _139  and  _142
REMARK   58  A    between atoms: _142  and  _143
REMARK   59  A    between atoms: _143  and  _144
REMARK   60  A    between atoms: _144  and  _145
REMARK   61  A    between atoms: _145  and  _146
REMARK   62  A    between atoms: _150  and  _152
REMARK   63  A    between atoms: _152  and  _153
REMARK   64  A    between atoms: _152  and  _155
REMARK   65  A    between atoms: _155  and  _156
REMARK   66  A    between atoms: _161  and  _162
REMARK   67  A    between atoms: _164  and  _166
REMARK   68  A    between atoms: _166  and  _167
REMARK   69  A    between atoms: _166  and  _169
REMARK   70  A    between atoms: _169  and  _170
REMARK   71  A    between atoms: _175  and  _177
REMARK   72  A    between atoms: _177  and  _178
REMARK   73  A    between atoms: _177  and  _180
REMARK   74  A    between atoms: _180  and  _181
REMARK   75  A    between atoms: _186  and  _188
REMARK   76  A    between atoms: _188  and  _189
REMARK   77  A    between atoms: _191  and  _193
REMARK   78  A    between atoms: _193  and  _194
REMARK   79  A    between atoms: _193  and  _196
REMARK   80  A    between atoms: _196  and  _197
REMARK   81  A    between atoms: _197  and  _198
REMARK   82  A    between atoms: _198  and  _199
REMARK   83  A    between atoms: _208  and  _210
REMARK   84  A    between atoms: _210  and  _211
REMARK   85  A    between atoms: _210  and  _213
REMARK   86  A    between atoms: _217  and  _218
REMARK   87  A    between atoms: _223  and  _225
REMARK   88  A    between atoms: _225  and  _226
REMARK   89  A    between atoms: _229  and  _231
REMARK   90  A    between atoms: _231  and  _232
REMARK   91  A    between atoms: _231  and  _234
REMARK   92  A    between atoms: _234  and  _235
REMARK   93  A    between atoms: _245  and  _247
REMARK   94  A    between atoms: _247  and  _248
REMARK   95  A    between atoms: _247  and  _250
REMARK   96  A    between atoms: _250  and  _251
REMARK   97  A    between atoms: _251  and  _252
REMARK   98  A    between atoms: _255  and  _257
REMARK   99  A    between atoms: _257  and  _258
REMARK  100  A    between atoms: _257  and  _260
REMARK  101  A    between atoms: _260  and  _261
REMARK  102  A    between atoms: _263  and  _265
REMARK  103  A    between atoms: _265  and  _266
REMARK  104  A    between atoms: _265  and  _268
REMARK  105  A    between atoms: _268  and  _269
REMARK  106  A    between atoms: _274  and  _276
REMARK  107  A    between atoms: _276  and  _277
REMARK  108  A    between atoms: _280  and  _282
REMARK  109  A    between atoms: _282  and  _283
REMARK  110  A    between atoms: _282  and  _285
REMARK  111  A    between atoms: _288  and  _290
REMARK  112  A    between atoms: _290  and  _291
REMARK  113  A    between atoms: _290  and  _293
REMARK  114  A    between atoms: _293  and  _294
REMARK  115  A    between atoms: _297  and  _299
REMARK  116  A    between atoms: _299  and  _300
REMARK  117  A    between atoms: _299  and  _302
REMARK  118  A    between atoms: _302  and  _303
REMARK  119  A    between atoms: _303  and  _304
REMARK  120  A    between atoms: _309  and  _311
REMARK  121  A    between atoms: _311  and  _312
REMARK  122  A    between atoms: _315  and  _317
REMARK  123  A    between atoms: _317  and  _318
REMARK  124  A    between atoms: _317  and  _320
REMARK  125  A    between atoms: _320  and  _321
REMARK  126  A    between atoms: _323  and  _325
REMARK  127  A    between atoms: _325  and  _326
REMARK  128  A    between atoms: _328  and  _330
REMARK  129  A    between atoms: _330  and  _331
REMARK  130  A    between atoms: _330  and  _333
REMARK  131  A    between atoms: _333  and  _334
REMARK  132  A    between atoms: _334  and  _335
REMARK  133  A    between atoms: _340  and  _342
REMARK  134  A    between atoms: _342  and  _343
REMARK  135  A    between atoms: _346  and  _347
REMARK  136  A    between atoms: _352  and  _354
REMARK  137  A    between atoms: _354  and  _355
REMARK  138  A    between atoms: _354  and  _357
REMARK  139  A    between atoms: _357  and  _358
REMARK  140  A    between atoms: _363  and  _364
REMARK  141  A    between atoms: _366  and  _368
REMARK  142  A    between atoms: _368  and  _369
REMARK  143  A    between atoms: _368  and  _371
REMARK  144  A    between atoms: _371  and  _372
REMARK  145  A    between atoms: _377  and  _378
REMARK  146  A    between atoms: _380  and  _382
REMARK  147  A    between atoms: _382  and  _383
REMARK  148  A    between atoms: _385  and  _387
REMARK  149  A    between atoms: _387  and  _388
REMARK  150  A    between atoms: _387  and  _390
REMARK  151  A    between atoms: _390  and  _391
REMARK  152  A    between atoms: _391  and  _392
REMARK  153  A    between atoms: _397  and  _399
REMARK  154  A    between atoms: _399  and  _400
REMARK  155  A    between atoms: _403  and  _405
REMARK  156  A    between atoms: _405  and  _406
REMARK  157  A    between atoms: _409  and  _411
REMARK  158  A    between atoms: _411  and  _412
REMARK  159  A    between atoms: _411  and  _414
REMARK  160  A    between atoms: _414  and  _415
REMARK  161  A    between atoms: _425  and  _427
REMARK  162  A    between atoms: _427  and  _428
REMARK  163  A    between atoms: _427  and  _430
REMARK  164  A    between atoms: _430  and  _431
REMARK  165  A    between atoms: _437  and  _439
REMARK  166  A    between atoms: _439  and  _440
REMARK  167  A    between atoms: _439  and  _442
REMARK  168  A    between atoms: _442  and  _443
REMARK  169  A    between atoms: _448  and  _449
REMARK  170  A    between atoms: _451  and  _453
REMARK  171  A    between atoms: _453  and  _454
REMARK  172  A    between atoms: _453  and  _456
REMARK  173  A    between atoms: _456  and  _457
REMARK  174  A    between atoms: _460  and  _462
REMARK  175  A    between atoms: _462  and  _463
REMARK  176  A    between atoms: _462  and  _465
REMARK  177  A    between atoms: _465  and  _466
REMARK  178  A    between atoms: _476  and  _478
REMARK  179  A    between atoms: _478  and  _479
REMARK  180  A    between atoms: _478  and  _481
REMARK  181  A    between atoms: _481  and  _482
REMARK  182  A    between atoms: _485  and  _487
REMARK  183  A    between atoms: _487  and  _488
REMARK  184  A    between atoms: _487  and  _490
REMARK  185  A    between atoms: _490  and  _491
REMARK  186  A    between atoms: _496  and  _497
REMARK  187  A    between atoms: _499  and  _501
REMARK  188  A    between atoms: _501  and  _502
REMARK  189  A    between atoms: _501  and  _504
REMARK  190  A    between atoms: _504  and  _505
REMARK  191  A    between atoms: _511  and  _513
REMARK  192  A    between atoms: _513  and  _514
REMARK  193  A    between atoms: _517  and  _519
REMARK  194  A    between atoms: _519  and  _520
REMARK  195  A    between atoms: _519  and  _522
REMARK  196  A    between atoms: _522  and  _523
REMARK  197  A    between atoms: _525  and  _527
REMARK  198  A    between atoms: _527  and  _528
REMARK  199  A    between atoms: _530  and  _532
REMARK  200  A    between atoms: _532  and  _533
REMARK  201  A    between atoms: _532  and  _535
REMARK  202  A    between atoms: _535  and  _536
REMARK  203  A    between atoms: _536  and  _537
REMARK  204  A    between atoms: _543  and  _544
REMARK  205  A    between atoms: _549  and  _551
REMARK  206  A    between atoms: _551  and  _552
REMARK  207  A    between atoms: _551  and  _554
REMARK  208  A    between atoms: _554  and  _555
REMARK  209  A    between atoms: _560  and  _561
REMARK  210  A    between atoms: _563  and  _565
REMARK  211  A    between atoms: _565  and  _566
REMARK  212  A    between atoms: _565  and  _568
REMARK  213  A    between atoms: _568  and  _569
REMARK  214  A    between atoms: _569  and  _570
REMARK  215  A    between atoms: _570  and  _571
REMARK  216  A    between atoms: _580  and  _582
REMARK  217  A    between atoms: _582  and  _583
REMARK  218  A    between atoms: _582  and  _585
REMARK  219  A    between atoms: _585  and  _586
REMARK  220  A    between atoms: _591  and  _592
REMARK  221  A    between atoms: _594  and  _596
REMARK  222  A    between atoms: _596  and  _597
REMARK  223  A    between atoms: _596  and  _599
REMARK  224  A    between atoms: _599  and  _600
REMARK  225  A    between atoms: _600  and  _601
REMARK  226  A    between atoms: _604  and  _606
REMARK  227  A    between atoms: _606  and  _607
REMARK  228  A    between atoms: _606  and  _609
REMARK  229  A    between atoms: _609  and  _610
REMARK  230  A    between atoms: _610  and  _611
REMARK  231  A    between atoms: _611  and  _612
REMARK                            x       y       z     vdW  Elec       q    Type
REMARK                         _______ _______ _______ _____ _____    ______ ____
ROOT
ATOM      1  O   HOH     1      20.039  -8.112  16.165  0.00  0.00    +0.000 OA
ENDROOT
TORSDOF 0
