REMARK  Name = ../refined-set-2016/1yda/1yda_pocket.pdb
REMARK  158 active torsions:
REMARK  status: ('A' for Active; 'I' for Inactive)
REMARK    1  A    between atoms: _1  and  _5
REMARK    2  A    between atoms: _5  and  _6
REMARK    3  A    between atoms: _5  and  _8
REMARK    4  A    between atoms: _8  and  _9
REMARK    5  A    between atoms: _19  and  _21
REMARK    6  A    between atoms: _21  and  _22
REMARK    7  A    between atoms: _21  and  _24
REMARK    8  A    between atoms: _24  and  _25
REMARK    9  A    between atoms: _30  and  _31
REMARK   10  A    between atoms: _33  and  _35
REMARK   11  A    between atoms: _35  and  _36
REMARK   12  A    between atoms: _35  and  _38
REMARK   13  A    between atoms: _38  and  _39
REMARK   14  A    between atoms: _49  and  _51
REMARK   15  A    between atoms: _51  and  _52
REMARK   16  A    between atoms: _51  and  _54
REMARK   17  A    between atoms: _54  and  _55
REMARK   18  A    between atoms: _58  and  _59
REMARK   19  A    between atoms: _64  and  _66
REMARK   20  A    between atoms: _66  and  _67
REMARK   21  A    between atoms: _66  and  _69
REMARK   22  A    between atoms: _69  and  _70
REMARK   23  A    between atoms: _75  and  _77
REMARK   24  A    between atoms: _77  and  _78
REMARK   25  A    between atoms: _77  and  _80
REMARK   26  A    between atoms: _80  and  _81
REMARK   27  A    between atoms: _86  and  _88
REMARK   28  A    between atoms: _88  and  _89
REMARK   29  A    between atoms: _88  and  _91
REMARK   30  A    between atoms: _91  and  _92
REMARK   31  A    between atoms: _97  and  _99
REMARK   32  A    between atoms: _99  and  _100
REMARK   33  A    between atoms: _99  and  _102
REMARK   34  A    between atoms: _102  and  _103
REMARK   35  A    between atoms: _106  and  _108
REMARK   36  A    between atoms: _108  and  _109
REMARK   37  A    between atoms: _108  and  _111
REMARK   38  A    between atoms: _111  and  _112
REMARK   39  A    between atoms: _112  and  _113
REMARK   40  A    between atoms: _118  and  _120
REMARK   41  A    between atoms: _120  and  _121
REMARK   42  A    between atoms: _120  and  _123
REMARK   43  A    between atoms: _123  and  _124
REMARK   44  A    between atoms: _130  and  _132
REMARK   45  A    between atoms: _132  and  _133
REMARK   46  A    between atoms: _132  and  _135
REMARK   47  A    between atoms: _135  and  _136
REMARK   48  A    between atoms: _141  and  _143
REMARK   49  A    between atoms: _143  and  _144
REMARK   50  A    between atoms: _143  and  _146
REMARK   51  A    between atoms: _146  and  _147
REMARK   52  A    between atoms: _153  and  _155
REMARK   53  A    between atoms: _155  and  _156
REMARK   54  A    between atoms: _155  and  _158
REMARK   55  A    between atoms: _158  and  _159
REMARK   56  A    between atoms: _163  and  ZN_427
REMARK   57  A    between atoms: _164  and  _166
REMARK   58  A    between atoms: _166  and  _167
REMARK   59  A    between atoms: _166  and  _169
REMARK   60  A    between atoms: _169  and  _170
REMARK   61  A    between atoms: _170  and  _171
REMARK   62  A    between atoms: _174  and  _176
REMARK   63  A    between atoms: _176  and  _177
REMARK   64  A    between atoms: _176  and  _179
REMARK   65  A    between atoms: _179  and  _180
REMARK   66  A    between atoms: _185  and  _187
REMARK   67  A    between atoms: _187  and  _188
REMARK   68  A    between atoms: _187  and  _190
REMARK   69  A    between atoms: _191  and  _192
REMARK   70  A    between atoms: _195  and  _197
REMARK   71  A    between atoms: _197  and  _198
REMARK   72  A    between atoms: _197  and  _200
REMARK   73  A    between atoms: _200  and  _201
REMARK   74  A    between atoms: _204  and  _206
REMARK   75  A    between atoms: _206  and  _207
REMARK   76  A    between atoms: _206  and  _209
REMARK   77  A    between atoms: _209  and  _210
REMARK   78  A    between atoms: _211  and  ZN_427
REMARK   79  A    between atoms: _215  and  _217
REMARK   80  A    between atoms: _217  and  _218
REMARK   81  A    between atoms: _217  and  _220
REMARK   82  A    between atoms: _220  and  _221
REMARK   83  A    between atoms: _224  and  _226
REMARK   84  A    between atoms: _226  and  _227
REMARK   85  A    between atoms: _226  and  _229
REMARK   86  A    between atoms: _232  and  _234
REMARK   87  A    between atoms: _234  and  _235
REMARK   88  A    between atoms: _234  and  _237
REMARK   89  A    between atoms: _237  and  _238
REMARK   90  A    between atoms: _243  and  _245
REMARK   91  A    between atoms: _245  and  _246
REMARK   92  A    between atoms: _245  and  _248
REMARK   93  A    between atoms: _248  and  _249
REMARK   94  A    between atoms: _255  and  _257
REMARK   95  A    between atoms: _257  and  _258
REMARK   96  A    between atoms: _257  and  _260
REMARK   97  A    between atoms: _263  and  _265
REMARK   98  A    between atoms: _265  and  _266
REMARK   99  A    between atoms: _265  and  _268
REMARK  100  A    between atoms: _268  and  _269
REMARK  101  A    between atoms: _272  and  _274
REMARK  102  A    between atoms: _274  and  _275
REMARK  103  A    between atoms: _278  and  _280
REMARK  104  A    between atoms: _280  and  _281
REMARK  105  A    between atoms: _280  and  _283
REMARK  106  A    between atoms: _286  and  _288
REMARK  107  A    between atoms: _288  and  _289
REMARK  108  A    between atoms: _288  and  _291
REMARK  109  A    between atoms: _291  and  _292
REMARK  110  A    between atoms: _295  and  _297
REMARK  111  A    between atoms: _297  and  _298
REMARK  112  A    between atoms: _300  and  _302
REMARK  113  A    between atoms: _302  and  _303
REMARK  114  A    between atoms: _302  and  _305
REMARK  115  A    between atoms: _305  and  _306
REMARK  116  A    between atoms: _308  and  _310
REMARK  117  A    between atoms: _310  and  _311
REMARK  118  A    between atoms: _310  and  _313
REMARK  119  A    between atoms: _313  and  _314
REMARK  120  A    between atoms: _314  and  _315
REMARK  121  A    between atoms: _318  and  _320
REMARK  122  A    between atoms: _320  and  _321
REMARK  123  A    between atoms: _320  and  _323
REMARK  124  A    between atoms: _323  and  _324
REMARK  125  A    between atoms: _327  and  _329
REMARK  126  A    between atoms: _329  and  _330
REMARK  127  A    between atoms: _329  and  _332
REMARK  128  A    between atoms: _332  and  _333
REMARK  129  A    between atoms: _337  and  _338
REMARK  130  A    between atoms: _344  and  _345
REMARK  131  A    between atoms: _350  and  _352
REMARK  132  A    between atoms: _352  and  _353
REMARK  133  A    between atoms: _352  and  _355
REMARK  134  A    between atoms: _355  and  _356
REMARK  135  A    between atoms: _359  and  _361
REMARK  136  A    between atoms: _361  and  _362
REMARK  137  A    between atoms: _361  and  _364
REMARK  138  A    between atoms: _364  and  _365
REMARK  139  A    between atoms: _368  and  _370
REMARK  140  A    between atoms: _370  and  _371
REMARK  141  A    between atoms: _370  and  _373
REMARK  142  A    between atoms: _375  and  _377
REMARK  143  A    between atoms: _377  and  _378
REMARK  144  A    between atoms: _377  and  _380
REMARK  145  A    between atoms: _383  and  _385
REMARK  146  A    between atoms: _385  and  _386
REMARK  147  A    between atoms: _385  and  _388
REMARK  148  A    between atoms: _388  and  _389
REMARK  149  A    between atoms: _399  and  _401
REMARK  150  A    between atoms: _401  and  _402
REMARK  151  A    between atoms: _401  and  _404
REMARK  152  A    between atoms: _404  and  _405
REMARK  153  A    between atoms: _410  and  _412
REMARK  154  A    between atoms: _412  and  _413
REMARK  155  A    between atoms: _412  and  _415
REMARK  156  A    between atoms: _415  and  _416
REMARK  157  A    between atoms: _416  and  _417
REMARK  158  A    between atoms: _417  and  _418
REMARK                            x       y       z     vdW  Elec       q    Type
REMARK                         _______ _______ _______ _____ _____    ______ ____
ROOT
ATOM      1  CG  TRP A   1       5.761  -0.009  12.232  0.00  0.00    -0.005 A 
ATOM      2  CD2 TRP A   1       4.448  -0.450  12.144  0.00  0.00    +0.013 A 
ATOM      3  CE3 TRP A   1       3.744  -1.607  12.401  0.00  0.00    +0.001 A 
ATOM      4  CZ3 TRP A   1       2.387  -1.613  12.169  0.00  0.00    +0.000 A 
ATOM      5  CH2 TRP A   1       1.751  -0.484  11.691  0.00  0.00    +0.001 A 
ATOM      6  CZ2 TRP A   1       2.447   0.668  11.435  0.00  0.00    +0.017 A 
ATOM      7  CE2 TRP A   1       3.803   0.674  11.663  0.00  0.00    +0.056 A 
ATOM      8  NE1 TRP A   1       4.692   1.673  11.495  0.00  0.00    -0.352 N 
ATOM      9  HE1 TRP A   1       4.451   2.622  11.144  0.00  0.00    +0.166 HD
ATOM     10  CD1 TRP A   1       5.908   1.289  11.834  0.00  0.00    +0.068 A 
ENDROOT
BRANCH   1  11
ATOM     11  CB  TRP A   1       6.949  -0.815  12.754  0.00  0.00    +0.014 C 
BRANCH  11  12
ATOM     12  CA  TRP A   1       7.721  -1.770  11.820  0.00  0.00    +0.005 C 
BRANCH  12  13
ATOM     13  N   TRP A   1       8.455  -1.027  10.813  0.00  0.00    +0.387 N 
ATOM     14  H1  TRP A   1       9.149  -0.408  11.278  0.00  0.00    -0.089 HD
ATOM     15  H2  TRP A   1       7.792  -0.450  10.257  0.00  0.00    -0.089 HD
ATOM     16  H3  TRP A   1       8.948  -1.692  10.184  0.00  0.00    -0.089 HD
ENDBRANCH  12  13
BRANCH  12  17
ATOM     17  C   TRP A   1       6.792  -2.584  10.952  0.00  0.00    +0.185 C 
ATOM     18  O   TRP A   1       6.561  -2.185   9.818  0.00  0.00    -0.291 OA
ENDBRANCH  12  17
ENDBRANCH  11  12
ENDBRANCH   1  11
TORSDOF 4
REMARK  Name = ../refined-set-2016/1yda/1yda_pocket.pdb
REMARK  158 active torsions:
REMARK  status: ('A' for Active; 'I' for Inactive)
REMARK    1  A    between atoms: _1  and  _5
REMARK    2  A    between atoms: _5  and  _6
REMARK    3  A    between atoms: _5  and  _8
REMARK    4  A    between atoms: _8  and  _9
REMARK    5  A    between atoms: _19  and  _21
REMARK    6  A    between atoms: _21  and  _22
REMARK    7  A    between atoms: _21  and  _24
REMARK    8  A    between atoms: _24  and  _25
REMARK    9  A    between atoms: _30  and  _31
REMARK   10  A    between atoms: _33  and  _35
REMARK   11  A    between atoms: _35  and  _36
REMARK   12  A    between atoms: _35  and  _38
REMARK   13  A    between atoms: _38  and  _39
REMARK   14  A    between atoms: _49  and  _51
REMARK   15  A    between atoms: _51  and  _52
REMARK   16  A    between atoms: _51  and  _54
REMARK   17  A    between atoms: _54  and  _55
REMARK   18  A    between atoms: _58  and  _59
REMARK   19  A    between atoms: _64  and  _66
REMARK   20  A    between atoms: _66  and  _67
REMARK   21  A    between atoms: _66  and  _69
REMARK   22  A    between atoms: _69  and  _70
REMARK   23  A    between atoms: _75  and  _77
REMARK   24  A    between atoms: _77  and  _78
REMARK   25  A    between atoms: _77  and  _80
REMARK   26  A    between atoms: _80  and  _81
REMARK   27  A    between atoms: _86  and  _88
REMARK   28  A    between atoms: _88  and  _89
REMARK   29  A    between atoms: _88  and  _91
REMARK   30  A    between atoms: _91  and  _92
REMARK   31  A    between atoms: _97  and  _99
REMARK   32  A    between atoms: _99  and  _100
REMARK   33  A    between atoms: _99  and  _102
REMARK   34  A    between atoms: _102  and  _103
REMARK   35  A    between atoms: _106  and  _108
REMARK   36  A    between atoms: _108  and  _109
REMARK   37  A    between atoms: _108  and  _111
REMARK   38  A    between atoms: _111  and  _112
REMARK   39  A    between atoms: _112  and  _113
REMARK   40  A    between atoms: _118  and  _120
REMARK   41  A    between atoms: _120  and  _121
REMARK   42  A    between atoms: _120  and  _123
REMARK   43  A    between atoms: _123  and  _124
REMARK   44  A    between atoms: _130  and  _132
REMARK   45  A    between atoms: _132  and  _133
REMARK   46  A    between atoms: _132  and  _135
REMARK   47  A    between atoms: _135  and  _136
REMARK   48  A    between atoms: _141  and  _143
REMARK   49  A    between atoms: _143  and  _144
REMARK   50  A    between atoms: _143  and  _146
REMARK   51  A    between atoms: _146  and  _147
REMARK   52  A    between atoms: _153  and  _155
REMARK   53  A    between atoms: _155  and  _156
REMARK   54  A    between atoms: _155  and  _158
REMARK   55  A    between atoms: _158  and  _159
REMARK   56  A    between atoms: _163  and  ZN_427
REMARK   57  A    between atoms: _164  and  _166
REMARK   58  A    between atoms: _166  and  _167
REMARK   59  A    between atoms: _166  and  _169
REMARK   60  A    between atoms: _169  and  _170
REMARK   61  A    between atoms: _170  and  _171
REMARK   62  A    between atoms: _174  and  _176
REMARK   63  A    between atoms: _176  and  _177
REMARK   64  A    between atoms: _176  and  _179
REMARK   65  A    between atoms: _179  and  _180
REMARK   66  A    between atoms: _185  and  _187
REMARK   67  A    between atoms: _187  and  _188
REMARK   68  A    between atoms: _187  and  _190
REMARK   69  A    between atoms: _191  and  _192
REMARK   70  A    between atoms: _195  and  _197
REMARK   71  A    between atoms: _197  and  _198
REMARK   72  A    between atoms: _197  and  _200
REMARK   73  A    between atoms: _200  and  _201
REMARK   74  A    between atoms: _204  and  _206
REMARK   75  A    between atoms: _206  and  _207
REMARK   76  A    between atoms: _206  and  _209
REMARK   77  A    between atoms: _209  and  _210
REMARK   78  A    between atoms: _211  and  ZN_427
REMARK   79  A    between atoms: _215  and  _217
REMARK   80  A    between atoms: _217  and  _218
REMARK   81  A    between atoms: _217  and  _220
REMARK   82  A    between atoms: _220  and  _221
REMARK   83  A    between atoms: _224  and  _226
REMARK   84  A    between atoms: _226  and  _227
REMARK   85  A    between atoms: _226  and  _229
REMARK   86  A    between atoms: _232  and  _234
REMARK   87  A    between atoms: _234  and  _235
REMARK   88  A    between atoms: _234  and  _237
REMARK   89  A    between atoms: _237  and  _238
REMARK   90  A    between atoms: _243  and  _245
REMARK   91  A    between atoms: _245  and  _246
REMARK   92  A    between atoms: _245  and  _248
REMARK   93  A    between atoms: _248  and  _249
REMARK   94  A    between atoms: _255  and  _257
REMARK   95  A    between atoms: _257  and  _258
REMARK   96  A    between atoms: _257  and  _260
REMARK   97  A    between atoms: _263  and  _265
REMARK   98  A    between atoms: _265  and  _266
REMARK   99  A    between atoms: _265  and  _268
REMARK  100  A    between atoms: _268  and  _269
REMARK  101  A    between atoms: _272  and  _274
REMARK  102  A    between atoms: _274  and  _275
REMARK  103  A    between atoms: _278  and  _280
REMARK  104  A    between atoms: _280  and  _281
REMARK  105  A    between atoms: _280  and  _283
REMARK  106  A    between atoms: _286  and  _288
REMARK  107  A    between atoms: _288  and  _289
REMARK  108  A    between atoms: _288  and  _291
REMARK  109  A    between atoms: _291  and  _292
REMARK  110  A    between atoms: _295  and  _297
REMARK  111  A    between atoms: _297  and  _298
REMARK  112  A    between atoms: _300  and  _302
REMARK  113  A    between atoms: _302  and  _303
REMARK  114  A    between atoms: _302  and  _305
REMARK  115  A    between atoms: _305  and  _306
REMARK  116  A    between atoms: _308  and  _310
REMARK  117  A    between atoms: _310  and  _311
REMARK  118  A    between atoms: _310  and  _313
REMARK  119  A    between atoms: _313  and  _314
REMARK  120  A    between atoms: _314  and  _315
REMARK  121  A    between atoms: _318  and  _320
REMARK  122  A    between atoms: _320  and  _321
REMARK  123  A    between atoms: _320  and  _323
REMARK  124  A    between atoms: _323  and  _324
REMARK  125  A    between atoms: _327  and  _329
REMARK  126  A    between atoms: _329  and  _330
REMARK  127  A    between atoms: _329  and  _332
REMARK  128  A    between atoms: _332  and  _333
REMARK  129  A    between atoms: _337  and  _338
REMARK  130  A    between atoms: _344  and  _345
REMARK  131  A    between atoms: _350  and  _352
REMARK  132  A    between atoms: _352  and  _353
REMARK  133  A    between atoms: _352  and  _355
REMARK  134  A    between atoms: _355  and  _356
REMARK  135  A    between atoms: _359  and  _361
REMARK  136  A    between atoms: _361  and  _362
REMARK  137  A    between atoms: _361  and  _364
REMARK  138  A    between atoms: _364  and  _365
REMARK  139  A    between atoms: _368  and  _370
REMARK  140  A    between atoms: _370  and  _371
REMARK  141  A    between atoms: _370  and  _373
REMARK  142  A    between atoms: _375  and  _377
REMARK  143  A    between atoms: _377  and  _378
REMARK  144  A    between atoms: _377  and  _380
REMARK  145  A    between atoms: _383  and  _385
REMARK  146  A    between atoms: _385  and  _386
REMARK  147  A    between atoms: _385  and  _388
REMARK  148  A    between atoms: _388  and  _389
REMARK  149  A    between atoms: _399  and  _401
REMARK  150  A    between atoms: _401  and  _402
REMARK  151  A    between atoms: _401  and  _404
REMARK  152  A    between atoms: _404  and  _405
REMARK  153  A    between atoms: _410  and  _412
REMARK  154  A    between atoms: _412  and  _413
REMARK  155  A    between atoms: _412  and  _415
REMARK  156  A    between atoms: _415  and  _416
REMARK  157  A    between atoms: _416  and  _417
REMARK  158  A    between atoms: _417  and  _418
REMARK                            x       y       z     vdW  Elec       q    Type
REMARK                         _______ _______ _______ _____ _____    ______ ____
ROOT
ATOM      1  CG  TYR A   1       2.078  -7.231  12.153  0.00  0.00    -0.020 A 
ATOM      2  CD2 TYR A   1       1.705  -7.009  13.472  0.00  0.00    -0.001 A 
ATOM      3  CE2 TYR A   1       0.941  -5.912  13.803  0.00  0.00    +0.036 A 
ATOM      4  CZ  TYR A   1       0.558  -5.047  12.786  0.00  0.00    +0.134 A 
ATOM      5  CE1 TYR A   1       0.934  -5.275  11.477  0.00  0.00    +0.036 A 
ATOM      6  CD1 TYR A   1       1.691  -6.371  11.164  0.00  0.00    -0.001 A 
ENDROOT
BRANCH   4   7
ATOM      7  OH  TYR A   1      -0.220  -3.931  13.074  0.00  0.00    -0.506 OA
ATOM      8  HH  TYR A   1      -1.073  -3.987  12.574  0.00  0.00    +0.292 HD
ENDBRANCH   4   7
BRANCH   1   9
ATOM      9  CB  TYR A   1       2.964  -8.402  11.801  0.00  0.00    +0.051 C 
BRANCH   9  10
ATOM     10  CA  TYR A   1       4.436  -8.002  11.927  0.00  0.00    +0.137 C 
BRANCH  10  11
ATOM     11  N   TYR A   1       4.764  -6.899  11.033  0.00  0.00    -0.239 NA
ATOM     12  H   TYR A   1       4.722  -7.041  10.004  0.00  0.00    +0.142 HD
ENDBRANCH  10  11
BRANCH  10  13
ATOM     13  C   TYR A   1       5.307  -9.182  11.589  0.00  0.00    +0.224 C 
ATOM     14  O   TYR A   1       4.963 -10.357  11.727  0.00  0.00    -0.287 OA
ENDBRANCH  10  13
ENDBRANCH   9  10
ENDBRANCH   1   9
TORSDOF 5
REMARK  Name = ../refined-set-2016/1yda/1yda_pocket.pdb
REMARK  158 active torsions:
REMARK  status: ('A' for Active; 'I' for Inactive)
REMARK    1  A    between atoms: _1  and  _5
REMARK    2  A    between atoms: _5  and  _6
REMARK    3  A    between atoms: _5  and  _8
REMARK    4  A    between atoms: _8  and  _9
REMARK    5  A    between atoms: _19  and  _21
REMARK    6  A    between atoms: _21  and  _22
REMARK    7  A    between atoms: _21  and  _24
REMARK    8  A    between atoms: _24  and  _25
REMARK    9  A    between atoms: _30  and  _31
REMARK   10  A    between atoms: _33  and  _35
REMARK   11  A    between atoms: _35  and  _36
REMARK   12  A    between atoms: _35  and  _38
REMARK   13  A    between atoms: _38  and  _39
REMARK   14  A    between atoms: _49  and  _51
REMARK   15  A    between atoms: _51  and  _52
REMARK   16  A    between atoms: _51  and  _54
REMARK   17  A    between atoms: _54  and  _55
REMARK   18  A    between atoms: _58  and  _59
REMARK   19  A    between atoms: _64  and  _66
REMARK   20  A    between atoms: _66  and  _67
REMARK   21  A    between atoms: _66  and  _69
REMARK   22  A    between atoms: _69  and  _70
REMARK   23  A    between atoms: _75  and  _77
REMARK   24  A    between atoms: _77  and  _78
REMARK   25  A    between atoms: _77  and  _80
REMARK   26  A    between atoms: _80  and  _81
REMARK   27  A    between atoms: _86  and  _88
REMARK   28  A    between atoms: _88  and  _89
REMARK   29  A    between atoms: _88  and  _91
REMARK   30  A    between atoms: _91  and  _92
REMARK   31  A    between atoms: _97  and  _99
REMARK   32  A    between atoms: _99  and  _100
REMARK   33  A    between atoms: _99  and  _102
REMARK   34  A    between atoms: _102  and  _103
REMARK   35  A    between atoms: _106  and  _108
REMARK   36  A    between atoms: _108  and  _109
REMARK   37  A    between atoms: _108  and  _111
REMARK   38  A    between atoms: _111  and  _112
REMARK   39  A    between atoms: _112  and  _113
REMARK   40  A    between atoms: _118  and  _120
REMARK   41  A    between atoms: _120  and  _121
REMARK   42  A    between atoms: _120  and  _123
REMARK   43  A    between atoms: _123  and  _124
REMARK   44  A    between atoms: _130  and  _132
REMARK   45  A    between atoms: _132  and  _133
REMARK   46  A    between atoms: _132  and  _135
REMARK   47  A    between atoms: _135  and  _136
REMARK   48  A    between atoms: _141  and  _143
REMARK   49  A    between atoms: _143  and  _144
REMARK   50  A    between atoms: _143  and  _146
REMARK   51  A    between atoms: _146  and  _147
REMARK   52  A    between atoms: _153  and  _155
REMARK   53  A    between atoms: _155  and  _156
REMARK   54  A    between atoms: _155  and  _158
REMARK   55  A    between atoms: _158  and  _159
REMARK   56  A    between atoms: _163  and  ZN_427
REMARK   57  A    between atoms: _164  and  _166
REMARK   58  A    between atoms: _166  and  _167
REMARK   59  A    between atoms: _166  and  _169
REMARK   60  A    between atoms: _169  and  _170
REMARK   61  A    between atoms: _170  and  _171
REMARK   62  A    between atoms: _174  and  _176
REMARK   63  A    between atoms: _176  and  _177
REMARK   64  A    between atoms: _176  and  _179
REMARK   65  A    between atoms: _179  and  _180
REMARK   66  A    between atoms: _185  and  _187
REMARK   67  A    between atoms: _187  and  _188
REMARK   68  A    between atoms: _187  and  _190
REMARK   69  A    between atoms: _191  and  _192
REMARK   70  A    between atoms: _195  and  _197
REMARK   71  A    between atoms: _197  and  _198
REMARK   72  A    between atoms: _197  and  _200
REMARK   73  A    between atoms: _200  and  _201
REMARK   74  A    between atoms: _204  and  _206
REMARK   75  A    between atoms: _206  and  _207
REMARK   76  A    between atoms: _206  and  _209
REMARK   77  A    between atoms: _209  and  _210
REMARK   78  A    between atoms: _211  and  ZN_427
REMARK   79  A    between atoms: _215  and  _217
REMARK   80  A    between atoms: _217  and  _218
REMARK   81  A    between atoms: _217  and  _220
REMARK   82  A    between atoms: _220  and  _221
REMARK   83  A    between atoms: _224  and  _226
REMARK   84  A    between atoms: _226  and  _227
REMARK   85  A    between atoms: _226  and  _229
REMARK   86  A    between atoms: _232  and  _234
REMARK   87  A    between atoms: _234  and  _235
REMARK   88  A    between atoms: _234  and  _237
REMARK   89  A    between atoms: _237  and  _238
REMARK   90  A    between atoms: _243  and  _245
REMARK   91  A    between atoms: _245  and  _246
REMARK   92  A    between atoms: _245  and  _248
REMARK   93  A    between atoms: _248  and  _249
REMARK   94  A    between atoms: _255  and  _257
REMARK   95  A    between atoms: _257  and  _258
REMARK   96  A    between atoms: _257  and  _260
REMARK   97  A    between atoms: _263  and  _265
REMARK   98  A    between atoms: _265  and  _266
REMARK   99  A    between atoms: _265  and  _268
REMARK  100  A    between atoms: _268  and  _269
REMARK  101  A    between atoms: _272  and  _274
REMARK  102  A    between atoms: _274  and  _275
REMARK  103  A    between atoms: _278  and  _280
REMARK  104  A    between atoms: _280  and  _281
REMARK  105  A    between atoms: _280  and  _283
REMARK  106  A    between atoms: _286  and  _288
REMARK  107  A    between atoms: _288  and  _289
REMARK  108  A    between atoms: _288  and  _291
REMARK  109  A    between atoms: _291  and  _292
REMARK  110  A    between atoms: _295  and  _297
REMARK  111  A    between atoms: _297  and  _298
REMARK  112  A    between atoms: _300  and  _302
REMARK  113  A    between atoms: _302  and  _303
REMARK  114  A    between atoms: _302  and  _305
REMARK  115  A    between atoms: _305  and  _306
REMARK  116  A    between atoms: _308  and  _310
REMARK  117  A    between atoms: _310  and  _311
REMARK  118  A    between atoms: _310  and  _313
REMARK  119  A    between atoms: _313  and  _314
REMARK  120  A    between atoms: _314  and  _315
REMARK  121  A    between atoms: _318  and  _320
REMARK  122  A    between atoms: _320  and  _321
REMARK  123  A    between atoms: _320  and  _323
REMARK  124  A    between atoms: _323  and  _324
REMARK  125  A    between atoms: _327  and  _329
REMARK  126  A    between atoms: _329  and  _330
REMARK  127  A    between atoms: _329  and  _332
REMARK  128  A    between atoms: _332  and  _333
REMARK  129  A    between atoms: _337  and  _338
REMARK  130  A    between atoms: _344  and  _345
REMARK  131  A    between atoms: _350  and  _352
REMARK  132  A    between atoms: _352  and  _353
REMARK  133  A    between atoms: _352  and  _355
REMARK  134  A    between atoms: _355  and  _356
REMARK  135  A    between atoms: _359  and  _361
REMARK  136  A    between atoms: _361  and  _362
REMARK  137  A    between atoms: _361  and  _364
REMARK  138  A    between atoms: _364  and  _365
REMARK  139  A    between atoms: _368  and  _370
REMARK  140  A    between atoms: _370  and  _371
REMARK  141  A    between atoms: _370  and  _373
REMARK  142  A    between atoms: _375  and  _377
REMARK  143  A    between atoms: _377  and  _378
REMARK  144  A    between atoms: _377  and  _380
REMARK  145  A    between atoms: _383  and  _385
REMARK  146  A    between atoms: _385  and  _386
REMARK  147  A    between atoms: _385  and  _388
REMARK  148  A    between atoms: _388  and  _389
REMARK  149  A    between atoms: _399  and  _401
REMARK  150  A    between atoms: _401  and  _402
REMARK  151  A    between atoms: _401  and  _404
REMARK  152  A    between atoms: _404  and  _405
REMARK  153  A    between atoms: _410  and  _412
REMARK  154  A    between atoms: _412  and  _413
REMARK  155  A    between atoms: _412  and  _415
REMARK  156  A    between atoms: _415  and  _416
REMARK  157  A    between atoms: _416  and  _417
REMARK  158  A    between atoms: _417  and  _418
REMARK                            x       y       z     vdW  Elec       q    Type
REMARK                         _______ _______ _______ _____ _____    ______ ____
ROOT
ATOM      1  CG  TRP A   1       6.454  -2.272  16.864  0.00  0.00    -0.002 A 
ATOM      2  CD2 TRP A   1       5.092  -2.506  16.913  0.00  0.00    +0.013 A 
ATOM      3  CE3 TRP A   1       4.009  -2.158  17.702  0.00  0.00    +0.001 A 
ATOM      4  CZ3 TRP A   1       2.760  -2.637  17.383  0.00  0.00    +0.000 A 
ATOM      5  CH2 TRP A   1       2.564  -3.454  16.296  0.00  0.00    +0.001 A 
ATOM      6  CZ2 TRP A   1       3.644  -3.803  15.506  0.00  0.00    +0.017 A 
ATOM      7  CE2 TRP A   1       4.907  -3.328  15.818  0.00  0.00    +0.056 A 
ATOM      8  NE1 TRP A   1       6.084  -3.546  15.207  0.00  0.00    -0.352 N 
ATOM      9  HE1 TRP A   1       6.206  -4.141  14.363  0.00  0.00    +0.166 HD
ATOM     10  CD1 TRP A   1       7.058  -2.913  15.811  0.00  0.00    +0.068 A 
ENDROOT
BRANCH   1  11
ATOM     11  CB  TRP A   1       7.243  -1.401  17.865  0.00  0.00    +0.053 C 
BRANCH  11  12
ATOM     12  CA  TRP A   1       8.771  -1.570  17.913  0.00  0.00    +0.137 C 
BRANCH  12  13
ATOM     13  N   TRP A   1       9.186  -2.963  18.100  0.00  0.00    -0.239 NA
ATOM     14  H   TRP A   1       8.496  -3.698  18.353  0.00  0.00    +0.142 HD
ENDBRANCH  12  13
BRANCH  12  15
ATOM     15  C   TRP A   1       9.281  -0.616  18.973  0.00  0.00    +0.224 C 
ATOM     16  O   TRP A   1       9.364   0.600  18.756  0.00  0.00    -0.287 OA
ENDBRANCH  12  15
ENDBRANCH  11  12
ENDBRANCH   1  11
TORSDOF 4
REMARK  Name = ../refined-set-2016/1yda/1yda_pocket.pdb
REMARK  158 active torsions:
REMARK  status: ('A' for Active; 'I' for Inactive)
REMARK    1  A    between atoms: _1  and  _5
REMARK    2  A    between atoms: _5  and  _6
REMARK    3  A    between atoms: _5  and  _8
REMARK    4  A    between atoms: _8  and  _9
REMARK    5  A    between atoms: _19  and  _21
REMARK    6  A    between atoms: _21  and  _22
REMARK    7  A    between atoms: _21  and  _24
REMARK    8  A    between atoms: _24  and  _25
REMARK    9  A    between atoms: _30  and  _31
REMARK   10  A    between atoms: _33  and  _35
REMARK   11  A    between atoms: _35  and  _36
REMARK   12  A    between atoms: _35  and  _38
REMARK   13  A    between atoms: _38  and  _39
REMARK   14  A    between atoms: _49  and  _51
REMARK   15  A    between atoms: _51  and  _52
REMARK   16  A    between atoms: _51  and  _54
REMARK   17  A    between atoms: _54  and  _55
REMARK   18  A    between atoms: _58  and  _59
REMARK   19  A    between atoms: _64  and  _66
REMARK   20  A    between atoms: _66  and  _67
REMARK   21  A    between atoms: _66  and  _69
REMARK   22  A    between atoms: _69  and  _70
REMARK   23  A    between atoms: _75  and  _77
REMARK   24  A    between atoms: _77  and  _78
REMARK   25  A    between atoms: _77  and  _80
REMARK   26  A    between atoms: _80  and  _81
REMARK   27  A    between atoms: _86  and  _88
REMARK   28  A    between atoms: _88  and  _89
REMARK   29  A    between atoms: _88  and  _91
REMARK   30  A    between atoms: _91  and  _92
REMARK   31  A    between atoms: _97  and  _99
REMARK   32  A    between atoms: _99  and  _100
REMARK   33  A    between atoms: _99  and  _102
REMARK   34  A    between atoms: _102  and  _103
REMARK   35  A    between atoms: _106  and  _108
REMARK   36  A    between atoms: _108  and  _109
REMARK   37  A    between atoms: _108  and  _111
REMARK   38  A    between atoms: _111  and  _112
REMARK   39  A    between atoms: _112  and  _113
REMARK   40  A    between atoms: _118  and  _120
REMARK   41  A    between atoms: _120  and  _121
REMARK   42  A    between atoms: _120  and  _123
REMARK   43  A    between atoms: _123  and  _124
REMARK   44  A    between atoms: _130  and  _132
REMARK   45  A    between atoms: _132  and  _133
REMARK   46  A    between atoms: _132  and  _135
REMARK   47  A    between atoms: _135  and  _136
REMARK   48  A    between atoms: _141  and  _143
REMARK   49  A    between atoms: _143  and  _144
REMARK   50  A    between atoms: _143  and  _146
REMARK   51  A    between atoms: _146  and  _147
REMARK   52  A    between atoms: _153  and  _155
REMARK   53  A    between atoms: _155  and  _156
REMARK   54  A    between atoms: _155  and  _158
REMARK   55  A    between atoms: _158  and  _159
REMARK   56  A    between atoms: _163  and  ZN_427
REMARK   57  A    between atoms: _164  and  _166
REMARK   58  A    between atoms: _166  and  _167
REMARK   59  A    between atoms: _166  and  _169
REMARK   60  A    between atoms: _169  and  _170
REMARK   61  A    between atoms: _170  and  _171
REMARK   62  A    between atoms: _174  and  _176
REMARK   63  A    between atoms: _176  and  _177
REMARK   64  A    between atoms: _176  and  _179
REMARK   65  A    between atoms: _179  and  _180
REMARK   66  A    between atoms: _185  and  _187
REMARK   67  A    between atoms: _187  and  _188
REMARK   68  A    between atoms: _187  and  _190
REMARK   69  A    between atoms: _191  and  _192
REMARK   70  A    between atoms: _195  and  _197
REMARK   71  A    between atoms: _197  and  _198
REMARK   72  A    between atoms: _197  and  _200
REMARK   73  A    between atoms: _200  and  _201
REMARK   74  A    between atoms: _204  and  _206
REMARK   75  A    between atoms: _206  and  _207
REMARK   76  A    between atoms: _206  and  _209
REMARK   77  A    between atoms: _209  and  _210
REMARK   78  A    between atoms: _211  and  ZN_427
REMARK   79  A    between atoms: _215  and  _217
REMARK   80  A    between atoms: _217  and  _218
REMARK   81  A    between atoms: _217  and  _220
REMARK   82  A    between atoms: _220  and  _221
REMARK   83  A    between atoms: _224  and  _226
REMARK   84  A    between atoms: _226  and  _227
REMARK   85  A    between atoms: _226  and  _229
REMARK   86  A    between atoms: _232  and  _234
REMARK   87  A    between atoms: _234  and  _235
REMARK   88  A    between atoms: _234  and  _237
REMARK   89  A    between atoms: _237  and  _238
REMARK   90  A    between atoms: _243  and  _245
REMARK   91  A    between atoms: _245  and  _246
REMARK   92  A    between atoms: _245  and  _248
REMARK   93  A    between atoms: _248  and  _249
REMARK   94  A    between atoms: _255  and  _257
REMARK   95  A    between atoms: _257  and  _258
REMARK   96  A    between atoms: _257  and  _260
REMARK   97  A    between atoms: _263  and  _265
REMARK   98  A    between atoms: _265  and  _266
REMARK   99  A    between atoms: _265  and  _268
REMARK  100  A    between atoms: _268  and  _269
REMARK  101  A    between atoms: _272  and  _274
REMARK  102  A    between atoms: _274  and  _275
REMARK  103  A    between atoms: _278  and  _280
REMARK  104  A    between atoms: _280  and  _281
REMARK  105  A    between atoms: _280  and  _283
REMARK  106  A    between atoms: _286  and  _288
REMARK  107  A    between atoms: _288  and  _289
REMARK  108  A    between atoms: _288  and  _291
REMARK  109  A    between atoms: _291  and  _292
REMARK  110  A    between atoms: _295  and  _297
REMARK  111  A    between atoms: _297  and  _298
REMARK  112  A    between atoms: _300  and  _302
REMARK  113  A    between atoms: _302  and  _303
REMARK  114  A    between atoms: _302  and  _305
REMARK  115  A    between atoms: _305  and  _306
REMARK  116  A    between atoms: _308  and  _310
REMARK  117  A    between atoms: _310  and  _311
REMARK  118  A    between atoms: _310  and  _313
REMARK  119  A    between atoms: _313  and  _314
REMARK  120  A    between atoms: _314  and  _315
REMARK  121  A    between atoms: _318  and  _320
REMARK  122  A    between atoms: _320  and  _321
REMARK  123  A    between atoms: _320  and  _323
REMARK  124  A    between atoms: _323  and  _324
REMARK  125  A    between atoms: _327  and  _329
REMARK  126  A    between atoms: _329  and  _330
REMARK  127  A    between atoms: _329  and  _332
REMARK  128  A    between atoms: _332  and  _333
REMARK  129  A    between atoms: _337  and  _338
REMARK  130  A    between atoms: _344  and  _345
REMARK  131  A    between atoms: _350  and  _352
REMARK  132  A    between atoms: _352  and  _353
REMARK  133  A    between atoms: _352  and  _355
REMARK  134  A    between atoms: _355  and  _356
REMARK  135  A    between atoms: _359  and  _361
REMARK  136  A    between atoms: _361  and  _362
REMARK  137  A    between atoms: _361  and  _364
REMARK  138  A    between atoms: _364  and  _365
REMARK  139  A    between atoms: _368  and  _370
REMARK  140  A    between atoms: _370  and  _371
REMARK  141  A    between atoms: _370  and  _373
REMARK  142  A    between atoms: _375  and  _377
REMARK  143  A    between atoms: _377  and  _378
REMARK  144  A    between atoms: _377  and  _380
REMARK  145  A    between atoms: _383  and  _385
REMARK  146  A    between atoms: _385  and  _386
REMARK  147  A    between atoms: _385  and  _388
REMARK  148  A    between atoms: _388  and  _389
REMARK  149  A    between atoms: _399  and  _401
REMARK  150  A    between atoms: _401  and  _402
REMARK  151  A    between atoms: _401  and  _404
REMARK  152  A    between atoms: _404  and  _405
REMARK  153  A    between atoms: _410  and  _412
REMARK  154  A    between atoms: _412  and  _413
REMARK  155  A    between atoms: _412  and  _415
REMARK  156  A    between atoms: _415  and  _416
REMARK  157  A    between atoms: _416  and  _417
REMARK  158  A    between atoms: _417  and  _418
REMARK                            x       y       z     vdW  Elec       q    Type
REMARK                         _______ _______ _______ _____ _____    ______ ____
ROOT
ATOM      1  C   SER A   1      -2.382  -2.988  23.456  0.00  0.00    +0.244 C 
ATOM      2  N   PRO A   2      -2.900  -4.193  23.196  0.00  0.00    -0.273 N 
ATOM      3  CA  PRO A   2      -4.080  -4.788  23.845  0.00  0.00    +0.140 C 
ATOM      4  CB  PRO A   2      -4.609  -5.734  22.774  0.00  0.00    +0.030 C 
ATOM      5  CG  PRO A   2      -3.306  -6.330  22.305  0.00  0.00    +0.024 C 
ATOM      6  CD  PRO A   2      -2.417  -5.094  22.143  0.00  0.00    +0.094 C 
ATOM      7  O   SER A   1      -1.491  -2.522  22.749  0.00  0.00    -0.273 OA
ENDROOT
BRANCH   3   8
ATOM      8  C   PRO A   2      -3.711  -5.478  25.161  0.00  0.00    +0.227 C 
ATOM      9  O   PRO A   2      -2.510  -5.483  25.464  0.00  0.00    -0.286 OA
ENDBRANCH   3   8
BRANCH   1  10
ATOM     10  CA  SER A   1      -2.950  -2.090  24.549  0.00  0.00    +0.175 C 
BRANCH  10  11
ATOM     11  N   SER A   1      -1.907  -1.186  25.003  0.00  0.00    -0.236 NA
ATOM     12  H   SER A   1      -1.519  -0.497  24.327  0.00  0.00    +0.142 HD
ENDBRANCH  10  11
BRANCH  10  13
ATOM     13  CB  SER A   1      -4.126  -1.295  23.997  0.00  0.00    +0.163 C 
BRANCH  13  14
ATOM     14  OG  SER A   1      -4.715  -0.461  24.971  0.00  0.00    -0.380 OA
ATOM     15  H   SER A   1      -5.045  -1.015  25.722  0.00  0.00    +0.211 HD
ENDBRANCH  13  14
ENDBRANCH  10  13
ENDBRANCH   1  10
TORSDOF 5
REMARK  Name = ../refined-set-2016/1yda/1yda_pocket.pdb
REMARK  158 active torsions:
REMARK  status: ('A' for Active; 'I' for Inactive)
REMARK    1  A    between atoms: _1  and  _5
REMARK    2  A    between atoms: _5  and  _6
REMARK    3  A    between atoms: _5  and  _8
REMARK    4  A    between atoms: _8  and  _9
REMARK    5  A    between atoms: _19  and  _21
REMARK    6  A    between atoms: _21  and  _22
REMARK    7  A    between atoms: _21  and  _24
REMARK    8  A    between atoms: _24  and  _25
REMARK    9  A    between atoms: _30  and  _31
REMARK   10  A    between atoms: _33  and  _35
REMARK   11  A    between atoms: _35  and  _36
REMARK   12  A    between atoms: _35  and  _38
REMARK   13  A    between atoms: _38  and  _39
REMARK   14  A    between atoms: _49  and  _51
REMARK   15  A    between atoms: _51  and  _52
REMARK   16  A    between atoms: _51  and  _54
REMARK   17  A    between atoms: _54  and  _55
REMARK   18  A    between atoms: _58  and  _59
REMARK   19  A    between atoms: _64  and  _66
REMARK   20  A    between atoms: _66  and  _67
REMARK   21  A    between atoms: _66  and  _69
REMARK   22  A    between atoms: _69  and  _70
REMARK   23  A    between atoms: _75  and  _77
REMARK   24  A    between atoms: _77  and  _78
REMARK   25  A    between atoms: _77  and  _80
REMARK   26  A    between atoms: _80  and  _81
REMARK   27  A    between atoms: _86  and  _88
REMARK   28  A    between atoms: _88  and  _89
REMARK   29  A    between atoms: _88  and  _91
REMARK   30  A    between atoms: _91  and  _92
REMARK   31  A    between atoms: _97  and  _99
REMARK   32  A    between atoms: _99  and  _100
REMARK   33  A    between atoms: _99  and  _102
REMARK   34  A    between atoms: _102  and  _103
REMARK   35  A    between atoms: _106  and  _108
REMARK   36  A    between atoms: _108  and  _109
REMARK   37  A    between atoms: _108  and  _111
REMARK   38  A    between atoms: _111  and  _112
REMARK   39  A    between atoms: _112  and  _113
REMARK   40  A    between atoms: _118  and  _120
REMARK   41  A    between atoms: _120  and  _121
REMARK   42  A    between atoms: _120  and  _123
REMARK   43  A    between atoms: _123  and  _124
REMARK   44  A    between atoms: _130  and  _132
REMARK   45  A    between atoms: _132  and  _133
REMARK   46  A    between atoms: _132  and  _135
REMARK   47  A    between atoms: _135  and  _136
REMARK   48  A    between atoms: _141  and  _143
REMARK   49  A    between atoms: _143  and  _144
REMARK   50  A    between atoms: _143  and  _146
REMARK   51  A    between atoms: _146  and  _147
REMARK   52  A    between atoms: _153  and  _155
REMARK   53  A    between atoms: _155  and  _156
REMARK   54  A    between atoms: _155  and  _158
REMARK   55  A    between atoms: _158  and  _159
REMARK   56  A    between atoms: _163  and  ZN_427
REMARK   57  A    between atoms: _164  and  _166
REMARK   58  A    between atoms: _166  and  _167
REMARK   59  A    between atoms: _166  and  _169
REMARK   60  A    between atoms: _169  and  _170
REMARK   61  A    between atoms: _170  and  _171
REMARK   62  A    between atoms: _174  and  _176
REMARK   63  A    between atoms: _176  and  _177
REMARK   64  A    between atoms: _176  and  _179
REMARK   65  A    between atoms: _179  and  _180
REMARK   66  A    between atoms: _185  and  _187
REMARK   67  A    between atoms: _187  and  _188
REMARK   68  A    between atoms: _187  and  _190
REMARK   69  A    between atoms: _191  and  _192
REMARK   70  A    between atoms: _195  and  _197
REMARK   71  A    between atoms: _197  and  _198
REMARK   72  A    between atoms: _197  and  _200
REMARK   73  A    between atoms: _200  and  _201
REMARK   74  A    between atoms: _204  and  _206
REMARK   75  A    between atoms: _206  and  _207
REMARK   76  A    between atoms: _206  and  _209
REMARK   77  A    between atoms: _209  and  _210
REMARK   78  A    between atoms: _211  and  ZN_427
REMARK   79  A    between atoms: _215  and  _217
REMARK   80  A    between atoms: _217  and  _218
REMARK   81  A    between atoms: _217  and  _220
REMARK   82  A    between atoms: _220  and  _221
REMARK   83  A    between atoms: _224  and  _226
REMARK   84  A    between atoms: _226  and  _227
REMARK   85  A    between atoms: _226  and  _229
REMARK   86  A    between atoms: _232  and  _234
REMARK   87  A    between atoms: _234  and  _235
REMARK   88  A    between atoms: _234  and  _237
REMARK   89  A    between atoms: _237  and  _238
REMARK   90  A    between atoms: _243  and  _245
REMARK   91  A    between atoms: _245  and  _246
REMARK   92  A    between atoms: _245  and  _248
REMARK   93  A    between atoms: _248  and  _249
REMARK   94  A    between atoms: _255  and  _257
REMARK   95  A    between atoms: _257  and  _258
REMARK   96  A    between atoms: _257  and  _260
REMARK   97  A    between atoms: _263  and  _265
REMARK   98  A    between atoms: _265  and  _266
REMARK   99  A    between atoms: _265  and  _268
REMARK  100  A    between atoms: _268  and  _269
REMARK  101  A    between atoms: _272  and  _274
REMARK  102  A    between atoms: _274  and  _275
REMARK  103  A    between atoms: _278  and  _280
REMARK  104  A    between atoms: _280  and  _281
REMARK  105  A    between atoms: _280  and  _283
REMARK  106  A    between atoms: _286  and  _288
REMARK  107  A    between atoms: _288  and  _289
REMARK  108  A    between atoms: _288  and  _291
REMARK  109  A    between atoms: _291  and  _292
REMARK  110  A    between atoms: _295  and  _297
REMARK  111  A    between atoms: _297  and  _298
REMARK  112  A    between atoms: _300  and  _302
REMARK  113  A    between atoms: _302  and  _303
REMARK  114  A    between atoms: _302  and  _305
REMARK  115  A    between atoms: _305  and  _306
REMARK  116  A    between atoms: _308  and  _310
REMARK  117  A    between atoms: _310  and  _311
REMARK  118  A    between atoms: _310  and  _313
REMARK  119  A    between atoms: _313  and  _314
REMARK  120  A    between atoms: _314  and  _315
REMARK  121  A    between atoms: _318  and  _320
REMARK  122  A    between atoms: _320  and  _321
REMARK  123  A    between atoms: _320  and  _323
REMARK  124  A    between atoms: _323  and  _324
REMARK  125  A    between atoms: _327  and  _329
REMARK  126  A    between atoms: _329  and  _330
REMARK  127  A    between atoms: _329  and  _332
REMARK  128  A    between atoms: _332  and  _333
REMARK  129  A    between atoms: _337  and  _338
REMARK  130  A    between atoms: _344  and  _345
REMARK  131  A    between atoms: _350  and  _352
REMARK  132  A    between atoms: _352  and  _353
REMARK  133  A    between atoms: _352  and  _355
REMARK  134  A    between atoms: _355  and  _356
REMARK  135  A    between atoms: _359  and  _361
REMARK  136  A    between atoms: _361  and  _362
REMARK  137  A    between atoms: _361  and  _364
REMARK  138  A    between atoms: _364  and  _365
REMARK  139  A    between atoms: _368  and  _370
REMARK  140  A    between atoms: _370  and  _371
REMARK  141  A    between atoms: _370  and  _373
REMARK  142  A    between atoms: _375  and  _377
REMARK  143  A    between atoms: _377  and  _378
REMARK  144  A    between atoms: _377  and  _380
REMARK  145  A    between atoms: _383  and  _385
REMARK  146  A    between atoms: _385  and  _386
REMARK  147  A    between atoms: _385  and  _388
REMARK  148  A    between atoms: _388  and  _389
REMARK  149  A    between atoms: _399  and  _401
REMARK  150  A    between atoms: _401  and  _402
REMARK  151  A    between atoms: _401  and  _404
REMARK  152  A    between atoms: _404  and  _405
REMARK  153  A    between atoms: _410  and  _412
REMARK  154  A    between atoms: _412  and  _413
REMARK  155  A    between atoms: _412  and  _415
REMARK  156  A    between atoms: _415  and  _416
REMARK  157  A    between atoms: _416  and  _417
REMARK  158  A    between atoms: _417  and  _418
REMARK                            x       y       z     vdW  Elec       q    Type
REMARK                         _______ _______ _______ _____ _____    ______ ____
ROOT
ATOM      1  CB  ASN A   1      -2.618   2.007   5.275  0.00  0.00    +0.110 C 
ENDROOT
BRANCH   1   2
ATOM      2  CG  ASN A   1      -2.914   1.151   6.496  0.00  0.00    +0.221 C 
ATOM      3  ND2 ASN A   1      -3.552   1.722   7.497  0.00  0.00    -0.329 N 
ATOM      4 HD21 ASN A   1      -3.705   1.199   8.383  0.00  0.00    +0.145 HD
ATOM      5 HD22 ASN A   1      -3.903   2.696   7.402  0.00  0.00    +0.145 HD
ATOM      6  OD1 ASN A   1      -2.511  -0.007   6.644  0.00  0.00    -0.275 OA
ENDBRANCH   1   2
BRANCH   1   7
ATOM      7  CA  ASN A   1      -2.194   1.235   4.047  0.00  0.00    +0.142 C 
BRANCH   7   8
ATOM      8  N   ASN A   1      -3.309   0.399   3.622  0.00  0.00    -0.239 NA
ATOM      9  H   ASN A   1      -3.829  -0.166   4.323  0.00  0.00    +0.142 HD
ENDBRANCH   7   8
BRANCH   7  10
ATOM     10  C   ASN A   1      -0.945   0.424   4.334  0.00  0.00    +0.225 C 
ATOM     11  O   ASN A   1      -0.019   0.899   4.982  0.00  0.00    -0.287 OA
ENDBRANCH   7  10
ENDBRANCH   1   7
TORSDOF 4
REMARK  Name = ../refined-set-2016/1yda/1yda_pocket.pdb
REMARK  158 active torsions:
REMARK  status: ('A' for Active; 'I' for Inactive)
REMARK    1  A    between atoms: _1  and  _5
REMARK    2  A    between atoms: _5  and  _6
REMARK    3  A    between atoms: _5  and  _8
REMARK    4  A    between atoms: _8  and  _9
REMARK    5  A    between atoms: _19  and  _21
REMARK    6  A    between atoms: _21  and  _22
REMARK    7  A    between atoms: _21  and  _24
REMARK    8  A    between atoms: _24  and  _25
REMARK    9  A    between atoms: _30  and  _31
REMARK   10  A    between atoms: _33  and  _35
REMARK   11  A    between atoms: _35  and  _36
REMARK   12  A    between atoms: _35  and  _38
REMARK   13  A    between atoms: _38  and  _39
REMARK   14  A    between atoms: _49  and  _51
REMARK   15  A    between atoms: _51  and  _52
REMARK   16  A    between atoms: _51  and  _54
REMARK   17  A    between atoms: _54  and  _55
REMARK   18  A    between atoms: _58  and  _59
REMARK   19  A    between atoms: _64  and  _66
REMARK   20  A    between atoms: _66  and  _67
REMARK   21  A    between atoms: _66  and  _69
REMARK   22  A    between atoms: _69  and  _70
REMARK   23  A    between atoms: _75  and  _77
REMARK   24  A    between atoms: _77  and  _78
REMARK   25  A    between atoms: _77  and  _80
REMARK   26  A    between atoms: _80  and  _81
REMARK   27  A    between atoms: _86  and  _88
REMARK   28  A    between atoms: _88  and  _89
REMARK   29  A    between atoms: _88  and  _91
REMARK   30  A    between atoms: _91  and  _92
REMARK   31  A    between atoms: _97  and  _99
REMARK   32  A    between atoms: _99  and  _100
REMARK   33  A    between atoms: _99  and  _102
REMARK   34  A    between atoms: _102  and  _103
REMARK   35  A    between atoms: _106  and  _108
REMARK   36  A    between atoms: _108  and  _109
REMARK   37  A    between atoms: _108  and  _111
REMARK   38  A    between atoms: _111  and  _112
REMARK   39  A    between atoms: _112  and  _113
REMARK   40  A    between atoms: _118  and  _120
REMARK   41  A    between atoms: _120  and  _121
REMARK   42  A    between atoms: _120  and  _123
REMARK   43  A    between atoms: _123  and  _124
REMARK   44  A    between atoms: _130  and  _132
REMARK   45  A    between atoms: _132  and  _133
REMARK   46  A    between atoms: _132  and  _135
REMARK   47  A    between atoms: _135  and  _136
REMARK   48  A    between atoms: _141  and  _143
REMARK   49  A    between atoms: _143  and  _144
REMARK   50  A    between atoms: _143  and  _146
REMARK   51  A    between atoms: _146  and  _147
REMARK   52  A    between atoms: _153  and  _155
REMARK   53  A    between atoms: _155  and  _156
REMARK   54  A    between atoms: _155  and  _158
REMARK   55  A    between atoms: _158  and  _159
REMARK   56  A    between atoms: _163  and  ZN_427
REMARK   57  A    between atoms: _164  and  _166
REMARK   58  A    between atoms: _166  and  _167
REMARK   59  A    between atoms: _166  and  _169
REMARK   60  A    between atoms: _169  and  _170
REMARK   61  A    between atoms: _170  and  _171
REMARK   62  A    between atoms: _174  and  _176
REMARK   63  A    between atoms: _176  and  _177
REMARK   64  A    between atoms: _176  and  _179
REMARK   65  A    between atoms: _179  and  _180
REMARK   66  A    between atoms: _185  and  _187
REMARK   67  A    between atoms: _187  and  _188
REMARK   68  A    between atoms: _187  and  _190
REMARK   69  A    between atoms: _191  and  _192
REMARK   70  A    between atoms: _195  and  _197
REMARK   71  A    between atoms: _197  and  _198
REMARK   72  A    between atoms: _197  and  _200
REMARK   73  A    between atoms: _200  and  _201
REMARK   74  A    between atoms: _204  and  _206
REMARK   75  A    between atoms: _206  and  _207
REMARK   76  A    between atoms: _206  and  _209
REMARK   77  A    between atoms: _209  and  _210
REMARK   78  A    between atoms: _211  and  ZN_427
REMARK   79  A    between atoms: _215  and  _217
REMARK   80  A    between atoms: _217  and  _218
REMARK   81  A    between atoms: _217  and  _220
REMARK   82  A    between atoms: _220  and  _221
REMARK   83  A    between atoms: _224  and  _226
REMARK   84  A    between atoms: _226  and  _227
REMARK   85  A    between atoms: _226  and  _229
REMARK   86  A    between atoms: _232  and  _234
REMARK   87  A    between atoms: _234  and  _235
REMARK   88  A    between atoms: _234  and  _237
REMARK   89  A    between atoms: _237  and  _238
REMARK   90  A    between atoms: _243  and  _245
REMARK   91  A    between atoms: _245  and  _246
REMARK   92  A    between atoms: _245  and  _248
REMARK   93  A    between atoms: _248  and  _249
REMARK   94  A    between atoms: _255  and  _257
REMARK   95  A    between atoms: _257  and  _258
REMARK   96  A    between atoms: _257  and  _260
REMARK   97  A    between atoms: _263  and  _265
REMARK   98  A    between atoms: _265  and  _266
REMARK   99  A    between atoms: _265  and  _268
REMARK  100  A    between atoms: _268  and  _269
REMARK  101  A    between atoms: _272  and  _274
REMARK  102  A    between atoms: _274  and  _275
REMARK  103  A    between atoms: _278  and  _280
REMARK  104  A    between atoms: _280  and  _281
REMARK  105  A    between atoms: _280  and  _283
REMARK  106  A    between atoms: _286  and  _288
REMARK  107  A    between atoms: _288  and  _289
REMARK  108  A    between atoms: _288  and  _291
REMARK  109  A    between atoms: _291  and  _292
REMARK  110  A    between atoms: _295  and  _297
REMARK  111  A    between atoms: _297  and  _298
REMARK  112  A    between atoms: _300  and  _302
REMARK  113  A    between atoms: _302  and  _303
REMARK  114  A    between atoms: _302  and  _305
REMARK  115  A    between atoms: _305  and  _306
REMARK  116  A    between atoms: _308  and  _310
REMARK  117  A    between atoms: _310  and  _311
REMARK  118  A    between atoms: _310  and  _313
REMARK  119  A    between atoms: _313  and  _314
REMARK  120  A    between atoms: _314  and  _315
REMARK  121  A    between atoms: _318  and  _320
REMARK  122  A    between atoms: _320  and  _321
REMARK  123  A    between atoms: _320  and  _323
REMARK  124  A    between atoms: _323  and  _324
REMARK  125  A    between atoms: _327  and  _329
REMARK  126  A    between atoms: _329  and  _330
REMARK  127  A    between atoms: _329  and  _332
REMARK  128  A    between atoms: _332  and  _333
REMARK  129  A    between atoms: _337  and  _338
REMARK  130  A    between atoms: _344  and  _345
REMARK  131  A    between atoms: _350  and  _352
REMARK  132  A    between atoms: _352  and  _353
REMARK  133  A    between atoms: _352  and  _355
REMARK  134  A    between atoms: _355  and  _356
REMARK  135  A    between atoms: _359  and  _361
REMARK  136  A    between atoms: _361  and  _362
REMARK  137  A    between atoms: _361  and  _364
REMARK  138  A    between atoms: _364  and  _365
REMARK  139  A    between atoms: _368  and  _370
REMARK  140  A    between atoms: _370  and  _371
REMARK  141  A    between atoms: _370  and  _373
REMARK  142  A    between atoms: _375  and  _377
REMARK  143  A    between atoms: _377  and  _378
REMARK  144  A    between atoms: _377  and  _380
REMARK  145  A    between atoms: _383  and  _385
REMARK  146  A    between atoms: _385  and  _386
REMARK  147  A    between atoms: _385  and  _388
REMARK  148  A    between atoms: _388  and  _389
REMARK  149  A    between atoms: _399  and  _401
REMARK  150  A    between atoms: _401  and  _402
REMARK  151  A    between atoms: _401  and  _404
REMARK  152  A    between atoms: _404  and  _405
REMARK  153  A    between atoms: _410  and  _412
REMARK  154  A    between atoms: _412  and  _413
REMARK  155  A    between atoms: _412  and  _415
REMARK  156  A    between atoms: _415  and  _416
REMARK  157  A    between atoms: _416  and  _417
REMARK  158  A    between atoms: _417  and  _418
REMARK                            x       y       z     vdW  Elec       q    Type
REMARK                         _______ _______ _______ _____ _____    ______ ____
ROOT
ATOM      1  CB  HIS A   1      -0.175  -2.265   8.705  0.00  0.00    +0.072 C 
ENDROOT
BRANCH   1   2
ATOM      2  CG  HIS A   1      -0.516  -0.820   8.899  0.00  0.00    +0.082 A 
ATOM      3  CD2 HIS A   1      -1.460  -0.369   9.778  0.00  0.00    +0.115 A 
ATOM      4  NE2 HIS A   1      -1.419   0.938   9.653  0.00  0.00    -0.221 NA
ATOM      5  CE1 HIS A   1      -0.517   1.302   8.758  0.00  0.00    +0.199 A 
ATOM      6  ND1 HIS A   1       0.044   0.224   8.285  0.00  0.00    -0.227 NA
ENDBRANCH   1   2
BRANCH   1   7
ATOM      7  CA  HIS A   1      -0.772  -2.937   7.478  0.00  0.00    +0.139 C 
BRANCH   7   8
ATOM      8  N   HIS A   1      -0.662  -2.064   6.336  0.00  0.00    -0.239 NA
ATOM      9  H   HIS A   1      -1.229  -1.197   6.246  0.00  0.00    +0.142 HD
ENDBRANCH   7   8
BRANCH   7  10
ATOM     10  C   HIS A   1      -2.174  -3.399   7.748  0.00  0.00    +0.224 C 
ATOM     11  O   HIS A   1      -2.356  -4.377   8.467  0.00  0.00    -0.287 OA
ENDBRANCH   7  10
ENDBRANCH   1   7
TORSDOF 4
REMARK  Name = ../refined-set-2016/1yda/1yda_pocket.pdb
REMARK  158 active torsions:
REMARK  status: ('A' for Active; 'I' for Inactive)
REMARK    1  A    between atoms: _1  and  _5
REMARK    2  A    between atoms: _5  and  _6
REMARK    3  A    between atoms: _5  and  _8
REMARK    4  A    between atoms: _8  and  _9
REMARK    5  A    between atoms: _19  and  _21
REMARK    6  A    between atoms: _21  and  _22
REMARK    7  A    between atoms: _21  and  _24
REMARK    8  A    between atoms: _24  and  _25
REMARK    9  A    between atoms: _30  and  _31
REMARK   10  A    between atoms: _33  and  _35
REMARK   11  A    between atoms: _35  and  _36
REMARK   12  A    between atoms: _35  and  _38
REMARK   13  A    between atoms: _38  and  _39
REMARK   14  A    between atoms: _49  and  _51
REMARK   15  A    between atoms: _51  and  _52
REMARK   16  A    between atoms: _51  and  _54
REMARK   17  A    between atoms: _54  and  _55
REMARK   18  A    between atoms: _58  and  _59
REMARK   19  A    between atoms: _64  and  _66
REMARK   20  A    between atoms: _66  and  _67
REMARK   21  A    between atoms: _66  and  _69
REMARK   22  A    between atoms: _69  and  _70
REMARK   23  A    between atoms: _75  and  _77
REMARK   24  A    between atoms: _77  and  _78
REMARK   25  A    between atoms: _77  and  _80
REMARK   26  A    between atoms: _80  and  _81
REMARK   27  A    between atoms: _86  and  _88
REMARK   28  A    between atoms: _88  and  _89
REMARK   29  A    between atoms: _88  and  _91
REMARK   30  A    between atoms: _91  and  _92
REMARK   31  A    between atoms: _97  and  _99
REMARK   32  A    between atoms: _99  and  _100
REMARK   33  A    between atoms: _99  and  _102
REMARK   34  A    between atoms: _102  and  _103
REMARK   35  A    between atoms: _106  and  _108
REMARK   36  A    between atoms: _108  and  _109
REMARK   37  A    between atoms: _108  and  _111
REMARK   38  A    between atoms: _111  and  _112
REMARK   39  A    between atoms: _112  and  _113
REMARK   40  A    between atoms: _118  and  _120
REMARK   41  A    between atoms: _120  and  _121
REMARK   42  A    between atoms: _120  and  _123
REMARK   43  A    between atoms: _123  and  _124
REMARK   44  A    between atoms: _130  and  _132
REMARK   45  A    between atoms: _132  and  _133
REMARK   46  A    between atoms: _132  and  _135
REMARK   47  A    between atoms: _135  and  _136
REMARK   48  A    between atoms: _141  and  _143
REMARK   49  A    between atoms: _143  and  _144
REMARK   50  A    between atoms: _143  and  _146
REMARK   51  A    between atoms: _146  and  _147
REMARK   52  A    between atoms: _153  and  _155
REMARK   53  A    between atoms: _155  and  _156
REMARK   54  A    between atoms: _155  and  _158
REMARK   55  A    between atoms: _158  and  _159
REMARK   56  A    between atoms: _163  and  ZN_427
REMARK   57  A    between atoms: _164  and  _166
REMARK   58  A    between atoms: _166  and  _167
REMARK   59  A    between atoms: _166  and  _169
REMARK   60  A    between atoms: _169  and  _170
REMARK   61  A    between atoms: _170  and  _171
REMARK   62  A    between atoms: _174  and  _176
REMARK   63  A    between atoms: _176  and  _177
REMARK   64  A    between atoms: _176  and  _179
REMARK   65  A    between atoms: _179  and  _180
REMARK   66  A    between atoms: _185  and  _187
REMARK   67  A    between atoms: _187  and  _188
REMARK   68  A    between atoms: _187  and  _190
REMARK   69  A    between atoms: _191  and  _192
REMARK   70  A    between atoms: _195  and  _197
REMARK   71  A    between atoms: _197  and  _198
REMARK   72  A    between atoms: _197  and  _200
REMARK   73  A    between atoms: _200  and  _201
REMARK   74  A    between atoms: _204  and  _206
REMARK   75  A    between atoms: _206  and  _207
REMARK   76  A    between atoms: _206  and  _209
REMARK   77  A    between atoms: _209  and  _210
REMARK   78  A    between atoms: _211  and  ZN_427
REMARK   79  A    between atoms: _215  and  _217
REMARK   80  A    between atoms: _217  and  _218
REMARK   81  A    between atoms: _217  and  _220
REMARK   82  A    between atoms: _220  and  _221
REMARK   83  A    between atoms: _224  and  _226
REMARK   84  A    between atoms: _226  and  _227
REMARK   85  A    between atoms: _226  and  _229
REMARK   86  A    between atoms: _232  and  _234
REMARK   87  A    between atoms: _234  and  _235
REMARK   88  A    between atoms: _234  and  _237
REMARK   89  A    between atoms: _237  and  _238
REMARK   90  A    between atoms: _243  and  _245
REMARK   91  A    between atoms: _245  and  _246
REMARK   92  A    between atoms: _245  and  _248
REMARK   93  A    between atoms: _248  and  _249
REMARK   94  A    between atoms: _255  and  _257
REMARK   95  A    between atoms: _257  and  _258
REMARK   96  A    between atoms: _257  and  _260
REMARK   97  A    between atoms: _263  and  _265
REMARK   98  A    between atoms: _265  and  _266
REMARK   99  A    between atoms: _265  and  _268
REMARK  100  A    between atoms: _268  and  _269
REMARK  101  A    between atoms: _272  and  _274
REMARK  102  A    between atoms: _274  and  _275
REMARK  103  A    between atoms: _278  and  _280
REMARK  104  A    between atoms: _280  and  _281
REMARK  105  A    between atoms: _280  and  _283
REMARK  106  A    between atoms: _286  and  _288
REMARK  107  A    between atoms: _288  and  _289
REMARK  108  A    between atoms: _288  and  _291
REMARK  109  A    between atoms: _291  and  _292
REMARK  110  A    between atoms: _295  and  _297
REMARK  111  A    between atoms: _297  and  _298
REMARK  112  A    between atoms: _300  and  _302
REMARK  113  A    between atoms: _302  and  _303
REMARK  114  A    between atoms: _302  and  _305
REMARK  115  A    between atoms: _305  and  _306
REMARK  116  A    between atoms: _308  and  _310
REMARK  117  A    between atoms: _310  and  _311
REMARK  118  A    between atoms: _310  and  _313
REMARK  119  A    between atoms: _313  and  _314
REMARK  120  A    between atoms: _314  and  _315
REMARK  121  A    between atoms: _318  and  _320
REMARK  122  A    between atoms: _320  and  _321
REMARK  123  A    between atoms: _320  and  _323
REMARK  124  A    between atoms: _323  and  _324
REMARK  125  A    between atoms: _327  and  _329
REMARK  126  A    between atoms: _329  and  _330
REMARK  127  A    between atoms: _329  and  _332
REMARK  128  A    between atoms: _332  and  _333
REMARK  129  A    between atoms: _337  and  _338
REMARK  130  A    between atoms: _344  and  _345
REMARK  131  A    between atoms: _350  and  _352
REMARK  132  A    between atoms: _352  and  _353
REMARK  133  A    between atoms: _352  and  _355
REMARK  134  A    between atoms: _355  and  _356
REMARK  135  A    between atoms: _359  and  _361
REMARK  136  A    between atoms: _361  and  _362
REMARK  137  A    between atoms: _361  and  _364
REMARK  138  A    between atoms: _364  and  _365
REMARK  139  A    between atoms: _368  and  _370
REMARK  140  A    between atoms: _370  and  _371
REMARK  141  A    between atoms: _370  and  _373
REMARK  142  A    between atoms: _375  and  _377
REMARK  143  A    between atoms: _377  and  _378
REMARK  144  A    between atoms: _377  and  _380
REMARK  145  A    between atoms: _383  and  _385
REMARK  146  A    between atoms: _385  and  _386
REMARK  147  A    between atoms: _385  and  _388
REMARK  148  A    between atoms: _388  and  _389
REMARK  149  A    between atoms: _399  and  _401
REMARK  150  A    between atoms: _401  and  _402
REMARK  151  A    between atoms: _401  and  _404
REMARK  152  A    between atoms: _404  and  _405
REMARK  153  A    between atoms: _410  and  _412
REMARK  154  A    between atoms: _412  and  _413
REMARK  155  A    between atoms: _412  and  _415
REMARK  156  A    between atoms: _415  and  _416
REMARK  157  A    between atoms: _416  and  _417
REMARK  158  A    between atoms: _417  and  _418
REMARK                            x       y       z     vdW  Elec       q    Type
REMARK                         _______ _______ _______ _____ _____    ______ ____
ROOT
ATOM      1  CB  ASN A   1      -8.473   2.562   7.103  0.00  0.00    +0.110 C 
ENDROOT
BRANCH   1   2
ATOM      2  CG  ASN A   1      -7.264   2.155   7.931  0.00  0.00    +0.221 C 
ATOM      3  ND2 ASN A   1      -7.101   0.944   8.414  0.00  0.00    -0.329 N 
ATOM      4 HD21 ASN A   1      -6.262   0.721   8.986  0.00  0.00    +0.145 HD
ATOM      5 HD22 ASN A   1      -7.811   0.208   8.224  0.00  0.00    +0.145 HD
ATOM      6  OD1 ASN A   1      -6.380   2.960   8.203  0.00  0.00    -0.275 OA
ENDBRANCH   1   2
BRANCH   1   7
ATOM      7  CA  ASN A   1      -9.328   1.414   6.624  0.00  0.00    +0.142 C 
BRANCH   7   8
ATOM      8  N   ASN A   1      -8.576   0.532   5.792  0.00  0.00    -0.239 NA
ATOM      9  H   ASN A   1      -8.223   0.887   4.881  0.00  0.00    +0.142 HD
ENDBRANCH   7   8
BRANCH   7  10
ATOM     10  C   ASN A   1     -10.497   1.996   5.883  0.00  0.00    +0.225 C 
ATOM     11  O   ASN A   1     -10.272   2.593   4.824  0.00  0.00    -0.287 OA
ENDBRANCH   7  10
ENDBRANCH   1   7
TORSDOF 4
REMARK  Name = ../refined-set-2016/1yda/1yda_pocket.pdb
REMARK  158 active torsions:
REMARK  status: ('A' for Active; 'I' for Inactive)
REMARK    1  A    between atoms: _1  and  _5
REMARK    2  A    between atoms: _5  and  _6
REMARK    3  A    between atoms: _5  and  _8
REMARK    4  A    between atoms: _8  and  _9
REMARK    5  A    between atoms: _19  and  _21
REMARK    6  A    between atoms: _21  and  _22
REMARK    7  A    between atoms: _21  and  _24
REMARK    8  A    between atoms: _24  and  _25
REMARK    9  A    between atoms: _30  and  _31
REMARK   10  A    between atoms: _33  and  _35
REMARK   11  A    between atoms: _35  and  _36
REMARK   12  A    between atoms: _35  and  _38
REMARK   13  A    between atoms: _38  and  _39
REMARK   14  A    between atoms: _49  and  _51
REMARK   15  A    between atoms: _51  and  _52
REMARK   16  A    between atoms: _51  and  _54
REMARK   17  A    between atoms: _54  and  _55
REMARK   18  A    between atoms: _58  and  _59
REMARK   19  A    between atoms: _64  and  _66
REMARK   20  A    between atoms: _66  and  _67
REMARK   21  A    between atoms: _66  and  _69
REMARK   22  A    between atoms: _69  and  _70
REMARK   23  A    between atoms: _75  and  _77
REMARK   24  A    between atoms: _77  and  _78
REMARK   25  A    between atoms: _77  and  _80
REMARK   26  A    between atoms: _80  and  _81
REMARK   27  A    between atoms: _86  and  _88
REMARK   28  A    between atoms: _88  and  _89
REMARK   29  A    between atoms: _88  and  _91
REMARK   30  A    between atoms: _91  and  _92
REMARK   31  A    between atoms: _97  and  _99
REMARK   32  A    between atoms: _99  and  _100
REMARK   33  A    between atoms: _99  and  _102
REMARK   34  A    between atoms: _102  and  _103
REMARK   35  A    between atoms: _106  and  _108
REMARK   36  A    between atoms: _108  and  _109
REMARK   37  A    between atoms: _108  and  _111
REMARK   38  A    between atoms: _111  and  _112
REMARK   39  A    between atoms: _112  and  _113
REMARK   40  A    between atoms: _118  and  _120
REMARK   41  A    between atoms: _120  and  _121
REMARK   42  A    between atoms: _120  and  _123
REMARK   43  A    between atoms: _123  and  _124
REMARK   44  A    between atoms: _130  and  _132
REMARK   45  A    between atoms: _132  and  _133
REMARK   46  A    between atoms: _132  and  _135
REMARK   47  A    between atoms: _135  and  _136
REMARK   48  A    between atoms: _141  and  _143
REMARK   49  A    between atoms: _143  and  _144
REMARK   50  A    between atoms: _143  and  _146
REMARK   51  A    between atoms: _146  and  _147
REMARK   52  A    between atoms: _153  and  _155
REMARK   53  A    between atoms: _155  and  _156
REMARK   54  A    between atoms: _155  and  _158
REMARK   55  A    between atoms: _158  and  _159
REMARK   56  A    between atoms: _163  and  ZN_427
REMARK   57  A    between atoms: _164  and  _166
REMARK   58  A    between atoms: _166  and  _167
REMARK   59  A    between atoms: _166  and  _169
REMARK   60  A    between atoms: _169  and  _170
REMARK   61  A    between atoms: _170  and  _171
REMARK   62  A    between atoms: _174  and  _176
REMARK   63  A    between atoms: _176  and  _177
REMARK   64  A    between atoms: _176  and  _179
REMARK   65  A    between atoms: _179  and  _180
REMARK   66  A    between atoms: _185  and  _187
REMARK   67  A    between atoms: _187  and  _188
REMARK   68  A    between atoms: _187  and  _190
REMARK   69  A    between atoms: _191  and  _192
REMARK   70  A    between atoms: _195  and  _197
REMARK   71  A    between atoms: _197  and  _198
REMARK   72  A    between atoms: _197  and  _200
REMARK   73  A    between atoms: _200  and  _201
REMARK   74  A    between atoms: _204  and  _206
REMARK   75  A    between atoms: _206  and  _207
REMARK   76  A    between atoms: _206  and  _209
REMARK   77  A    between atoms: _209  and  _210
REMARK   78  A    between atoms: _211  and  ZN_427
REMARK   79  A    between atoms: _215  and  _217
REMARK   80  A    between atoms: _217  and  _218
REMARK   81  A    between atoms: _217  and  _220
REMARK   82  A    between atoms: _220  and  _221
REMARK   83  A    between atoms: _224  and  _226
REMARK   84  A    between atoms: _226  and  _227
REMARK   85  A    between atoms: _226  and  _229
REMARK   86  A    between atoms: _232  and  _234
REMARK   87  A    between atoms: _234  and  _235
REMARK   88  A    between atoms: _234  and  _237
REMARK   89  A    between atoms: _237  and  _238
REMARK   90  A    between atoms: _243  and  _245
REMARK   91  A    between atoms: _245  and  _246
REMARK   92  A    between atoms: _245  and  _248
REMARK   93  A    between atoms: _248  and  _249
REMARK   94  A    between atoms: _255  and  _257
REMARK   95  A    between atoms: _257  and  _258
REMARK   96  A    between atoms: _257  and  _260
REMARK   97  A    between atoms: _263  and  _265
REMARK   98  A    between atoms: _265  and  _266
REMARK   99  A    between atoms: _265  and  _268
REMARK  100  A    between atoms: _268  and  _269
REMARK  101  A    between atoms: _272  and  _274
REMARK  102  A    between atoms: _274  and  _275
REMARK  103  A    between atoms: _278  and  _280
REMARK  104  A    between atoms: _280  and  _281
REMARK  105  A    between atoms: _280  and  _283
REMARK  106  A    between atoms: _286  and  _288
REMARK  107  A    between atoms: _288  and  _289
REMARK  108  A    between atoms: _288  and  _291
REMARK  109  A    between atoms: _291  and  _292
REMARK  110  A    between atoms: _295  and  _297
REMARK  111  A    between atoms: _297  and  _298
REMARK  112  A    between atoms: _300  and  _302
REMARK  113  A    between atoms: _302  and  _303
REMARK  114  A    between atoms: _302  and  _305
REMARK  115  A    between atoms: _305  and  _306
REMARK  116  A    between atoms: _308  and  _310
REMARK  117  A    between atoms: _310  and  _311
REMARK  118  A    between atoms: _310  and  _313
REMARK  119  A    between atoms: _313  and  _314
REMARK  120  A    between atoms: _314  and  _315
REMARK  121  A    between atoms: _318  and  _320
REMARK  122  A    between atoms: _320  and  _321
REMARK  123  A    between atoms: _320  and  _323
REMARK  124  A    between atoms: _323  and  _324
REMARK  125  A    between atoms: _327  and  _329
REMARK  126  A    between atoms: _329  and  _330
REMARK  127  A    between atoms: _329  and  _332
REMARK  128  A    between atoms: _332  and  _333
REMARK  129  A    between atoms: _337  and  _338
REMARK  130  A    between atoms: _344  and  _345
REMARK  131  A    between atoms: _350  and  _352
REMARK  132  A    between atoms: _352  and  _353
REMARK  133  A    between atoms: _352  and  _355
REMARK  134  A    between atoms: _355  and  _356
REMARK  135  A    between atoms: _359  and  _361
REMARK  136  A    between atoms: _361  and  _362
REMARK  137  A    between atoms: _361  and  _364
REMARK  138  A    between atoms: _364  and  _365
REMARK  139  A    between atoms: _368  and  _370
REMARK  140  A    between atoms: _370  and  _371
REMARK  141  A    between atoms: _370  and  _373
REMARK  142  A    between atoms: _375  and  _377
REMARK  143  A    between atoms: _377  and  _378
REMARK  144  A    between atoms: _377  and  _380
REMARK  145  A    between atoms: _383  and  _385
REMARK  146  A    between atoms: _385  and  _386
REMARK  147  A    between atoms: _385  and  _388
REMARK  148  A    between atoms: _388  and  _389
REMARK  149  A    between atoms: _399  and  _401
REMARK  150  A    between atoms: _401  and  _402
REMARK  151  A    between atoms: _401  and  _404
REMARK  152  A    between atoms: _404  and  _405
REMARK  153  A    between atoms: _410  and  _412
REMARK  154  A    between atoms: _412  and  _413
REMARK  155  A    between atoms: _412  and  _415
REMARK  156  A    between atoms: _415  and  _416
REMARK  157  A    between atoms: _416  and  _417
REMARK  158  A    between atoms: _417  and  _418
REMARK                            x       y       z     vdW  Elec       q    Type
REMARK                         _______ _______ _______ _____ _____    ______ ____
ROOT
ATOM      1  C   UNK A   6      -5.914  -5.597  14.382  0.00  0.00    +0.000 A 
ATOM      2  C   UNK A   6      -6.858  -4.652  14.593  0.00  0.00    +0.000 A 
ATOM      3  N   UNK A   6      -6.250  -3.474  14.636  0.00  0.00    +0.000 N 
ATOM      4  C   UNK A   6      -4.960  -3.734  14.496  0.00  0.00    +0.000 A 
ATOM      5  N   UNK A   6      -4.748  -5.005  14.343  0.00  0.00    +0.000 NA
ENDROOT
BRANCH   3   6
ATOM      6 ZN   UNK A   6      -6.603  -1.511  15.464  0.00  0.00    +0.000 Zn
BRANCH   6   7
ATOM      7  N   UNK A   6      -8.395  -2.666  16.416  0.00  0.00    +0.000 N 
ATOM      8  C   UNK A   6      -8.085  -3.488  17.412  0.00  0.00    +0.000 A 
ATOM      9  N   UNK A   6      -9.033  -3.436  18.272  0.00  0.00    +0.000 NA
ATOM     10  C   UNK A   6      -9.977  -2.605  17.918  0.00  0.00    +0.000 A 
ATOM     11  C   UNK A   6      -9.562  -2.078  16.733  0.00  0.00    +0.000 A 
BRANCH  11  12
ATOM     12  C   UNK A   6     -10.328  -0.983  16.031  0.00  0.00    +0.000 C 
BRANCH  12  13
ATOM     13  C   UNK A   6     -11.822  -1.252  15.820  0.00  0.00    +0.000 C 
BRANCH  13  14
ATOM     14  N   UNK A   6     -12.048  -2.400  14.989  0.00  0.00    +0.000 N 
ATOM     15  C   LEU A   2     -12.663  -3.509  15.404  0.00  0.00    +0.000 C 
ATOM     16  O   LEU A   2     -13.066  -3.630  16.572  0.00  0.00    +0.000 OA
ATOM     17  H   UNK A   6     -11.713  -2.365  14.005  0.00  0.00    +0.000 HD
BRANCH  15  18
ATOM     18  CA  LEU A   2     -12.920  -4.659  14.423  0.00  0.00    +0.000 C 
BRANCH  18  19
ATOM     19  N   LEU A   2     -12.508  -5.918  14.997  0.00  0.00    +0.000 N 
ATOM     20  H   LEU A   2     -13.240  -6.458  15.500  0.00  0.00    +0.000 HD
ATOM     21  C   GLU A   1     -11.304  -6.460  14.954  0.00  0.00    +0.000 C 
ATOM     22  O   GLU A   1     -10.354  -5.924  14.388  0.00  0.00    +0.000 OA
BRANCH  21  23
ATOM     23  CA  GLU A   1     -11.141  -7.760  15.722  0.00  0.00    +0.000 C 
BRANCH  23  24
ATOM     24  CB  GLU A   1     -10.232  -7.591  16.948  0.00  0.00    +0.000 C 
ATOM     25  CG  GLU A   1     -10.687  -6.677  18.105  0.00  0.00    +0.000 C 
BRANCH  25  26
ATOM     26  CD  GLU A   1      -9.762  -6.616  19.325  0.00  0.00    +0.000 C 
ATOM     27  OE2 GLU A   1      -9.645  -5.553  19.923  0.00  0.00    +0.000 OA
ATOM     28  OE1 GLU A   1      -9.192  -7.631  19.691  0.00  0.00    +0.000 OA
ENDBRANCH  25  26
ENDBRANCH  23  24
BRANCH  23  29
ATOM     29  N   GLU A   1     -10.571  -8.780  14.917  0.00  0.00    +0.000 NA
ATOM     30  H   GLU A   1      -9.912  -8.517  14.157  0.00  0.00    +0.000 HD
ENDBRANCH  23  29
ENDBRANCH  21  23
ENDBRANCH  18  19
BRANCH  18  31
ATOM     31  CB  LEU A   2     -14.419  -4.774  14.120  0.00  0.00    +0.000 C 
BRANCH  31  32
ATOM     32  CG  LEU A   2     -15.309  -3.602  13.678  0.00  0.00    +0.000 C 
ATOM     33  CD2 LEU A   2     -16.668  -4.199  13.375  0.00  0.00    +0.000 C 
ATOM     34  CD1 LEU A   2     -14.803  -2.880  12.450  0.00  0.00    +0.000 C 
ENDBRANCH  31  32
ENDBRANCH  18  31
ENDBRANCH  15  18
ENDBRANCH  13  14
BRANCH  13  35
ATOM     35  C   UNK A   6     -12.419  -0.045  15.111  0.00  0.00    +0.000 C 
ATOM     36  N   LEU A   4     -13.428   0.608  15.695  0.00  0.00    +0.000 N 
ATOM     37  H   LEU A   4     -13.780   0.252  16.607  0.00  0.00    +0.000 HD
ATOM     38  O   UNK A   6     -11.922   0.285  14.011  0.00  0.00    +0.000 OA
BRANCH  36  39
ATOM     39  CA  LEU A   4     -14.056   1.775  15.135  0.00  0.00    +0.000 C 
BRANCH  39  40
ATOM     40  C   LEU A   4     -13.449   2.921  15.866  0.00  0.00    +0.000 C 
ATOM     41  O   LEU A   4     -13.669   3.055  17.088  0.00  0.00    +0.000 OA
ATOM     42  N   VAL A   5     -12.670   3.778  15.210  0.00  0.00    +0.000 N 
ATOM     43  H   VAL A   5     -12.622   3.737  14.172  0.00  0.00    +0.000 HD
BRANCH  42  44
ATOM     44  CA  VAL A   5     -11.897   4.756  15.916  0.00  0.00    +0.000 C 
BRANCH  44  45
ATOM     45  C   VAL A   5     -12.664   6.046  16.004  0.00  0.00    +0.000 C 
ATOM     46  N   UNK A   6     -12.573   6.745  17.171  0.00  0.00    +0.000 N 
ATOM     47  H   UNK A   6     -11.967   6.385  17.936  0.00  0.00    +0.000 HD
ATOM     48  O   VAL A   5     -13.346   6.390  15.012  0.00  0.00    +0.000 OA
BRANCH  46  49
ATOM     49  C   UNK A   6     -13.304   7.978  17.365  0.00  0.00    +0.000 C 
BRANCH  49  50
ATOM     50  C   UNK A   6     -12.446   9.009  18.055  0.00  0.00    +0.000 C 
ATOM     51  O   UNK A   6     -11.708   8.606  18.944  0.00  0.00    +0.000 OA
ENDBRANCH  49  50
BRANCH  49  52
ATOM     52  C   UNK A   6     -14.525   7.754  18.228  0.00  0.00    +0.000 C 
BRANCH  52  53
ATOM     53  C   UNK A   6     -15.397   6.561  17.889  0.00  0.00    +0.000 A 
ATOM     54  N   UNK A   6     -15.093   5.264  17.944  0.00  0.00    +0.000 NA
ATOM     55  C   UNK A   6     -16.147   4.600  17.616  0.00  0.00    +0.000 A 
ATOM     56  N   UNK A   6     -17.091   5.476  17.359  0.00  0.00    +0.000 NA
ATOM     57  C   UNK A   6     -16.694   6.702  17.506  0.00  0.00    +0.000 A 
ENDBRANCH  52  53
ENDBRANCH  49  52
ENDBRANCH  46  49
ENDBRANCH  44  45
BRANCH  44  58
ATOM     58  CB  VAL A   5     -10.560   4.951  15.206  0.00  0.00    +0.000 C 
ATOM     59  CG2 VAL A   5      -9.661   5.999  15.850  0.00  0.00    +0.000 C 
ATOM     60  CG1 VAL A   5      -9.884   3.616  15.263  0.00  0.00    +0.000 C 
ENDBRANCH  44  58
ENDBRANCH  42  44
ENDBRANCH  39  40
BRANCH  39  61
ATOM     61  CB  LEU A   4     -15.539   1.678  15.350  0.00  0.00    +0.000 C 
BRANCH  61  62
ATOM     62  CG  LEU A   4     -16.115   0.460  14.627  0.00  0.00    +0.000 C 
ATOM     63  CD2 LEU A   4     -16.791  -0.462  15.571  0.00  0.00    +0.000 C 
ATOM     64  CD1 LEU A   4     -17.158   0.917  13.649  0.00  0.00    +0.000 C 
ENDBRANCH  61  62
ENDBRANCH  39  61
ENDBRANCH  36  39
ENDBRANCH  13  35
ENDBRANCH  12  13
ENDBRANCH  11  12
ENDBRANCH   6   7
ENDBRANCH   3   6
BRANCH   1  65
ATOM     65  C   UNK A   6      -6.226  -7.032  14.098  0.00  0.00    +0.000 C 
BRANCH  65  66
ATOM     66  C   UNK A   6      -6.749  -7.182  12.651  0.00  0.00    +0.000 C 
BRANCH  66  68
ATOM     67  C   VAL A   5      -8.226  -5.430  11.633  0.00  0.00    +0.000 C 
ATOM     68  N   UNK A   6      -8.019  -6.513  12.382  0.00  0.00    +0.000 N 
ATOM     69  H   UNK A   6      -8.861  -6.931  12.827  0.00  0.00    +0.000 HD
ATOM     70  O   VAL A   5      -7.316  -4.662  11.290  0.00  0.00    +0.000 OA
BRANCH  67  71
ATOM     71  CA  VAL A   5      -9.677  -5.048  11.411  0.00  0.00    +0.000 C 
BRANCH  71  74
ATOM     72  C   LEU A   4     -10.264  -2.710  11.245  0.00  0.00    +0.000 C 
ATOM     73  O   LEU A   4     -10.727  -2.690  12.394  0.00  0.00    +0.000 OA
ATOM     74  N   VAL A   5      -9.662  -3.781  10.750  0.00  0.00    +0.000 N 
ATOM     75  H   VAL A   5      -9.158  -3.697   9.844  0.00  0.00    +0.000 HD
BRANCH  72  76
ATOM     76  CA  LEU A   4     -10.194  -1.442  10.457  0.00  0.00    +0.000 C 
BRANCH  76  78
ATOM     77  C   UNK A   3     -11.654   0.538  10.449  0.00  0.00    +0.000 C 
ATOM     78  N   LEU A   4     -11.104  -0.490  11.087  0.00  0.00    +0.000 N 
ATOM     79  H   LEU A   4     -11.335  -0.624  12.092  0.00  0.00    +0.000 HD
ATOM     80  O   UNK A   3     -11.393   0.739   9.254  0.00  0.00    +0.000 OA
BRANCH  77  81
ATOM     81  C   UNK A   3     -12.599   1.478  11.182  0.00  0.00    +0.000 C 
BRANCH  81  84
ATOM     82  C   LEU A   2     -12.459   3.904  11.130  0.00  0.00    +0.000 C 
ATOM     83  O   LEU A   2     -12.567   3.977  12.344  0.00  0.00    +0.000 OA
ATOM     84  N   UNK A   3     -12.528   2.743  10.500  0.00  0.00    +0.000 N 
ATOM     85  H   UNK A   3     -12.531   2.745   9.460  0.00  0.00    +0.000 HD
BRANCH  82  86
ATOM     86  CA  LEU A   2     -12.283   5.199  10.355  0.00  0.00    +0.000 C 
BRANCH  86  88
ATOM     87  C   GLU A   1     -12.750   7.554  10.770  0.00  0.00    +0.000 C 
ATOM     88  N   LEU A   2     -12.639   6.310  11.213  0.00  0.00    +0.000 N 
ATOM     89  H   LEU A   2     -12.815   6.123  12.221  0.00  0.00    +0.000 HD
ATOM     90  O   GLU A   1     -12.683   7.760   9.547  0.00  0.00    +0.000 OA
BRANCH  87  91
ATOM     91  CA  GLU A   1     -12.989   8.739  11.727  0.00  0.00    +0.000 C 
BRANCH  91  92
ATOM     92  N   GLU A   1     -13.897   8.397  12.799  0.00  0.00    +0.000 NA
ATOM     93  H   GLU A   1     -13.560   7.783  13.568  0.00  0.00    +0.000 HD
ENDBRANCH  91  92
BRANCH  91  94
ATOM     94  CB  GLU A   1     -11.698   9.212  12.334  0.00  0.00    +0.000 C 
ATOM     95  CG2 GLU A   1     -11.045   8.100  13.159  0.00  0.00    +0.000 C 
BRANCH  94  96
ATOM     96  CG1 GLU A   1     -10.776   9.643  11.219  0.00  0.00    +0.000 C 
ATOM     97  CD1 GLU A   1      -9.477  10.318  11.685  0.00  0.00    +0.000 C 
ENDBRANCH  94  96
ENDBRANCH  91  94
ENDBRANCH  87  91
ENDBRANCH  86  88
BRANCH  86  98
ATOM     98  CB  LEU A   2     -10.806   5.300   9.877  0.00  0.00    +0.000 C 
BRANCH  98  99
ATOM     99  CG  LEU A   2      -9.670   5.446  10.914  0.00  0.00    +0.000 C 
BRANCH  99 100
ATOM    100  CD  LEU A   2      -8.915   4.163  11.220  0.00  0.00    +0.000 C 
ATOM    101  NE2 LEU A   2      -7.614   4.064  11.486  0.00  0.00    +0.000 N 
ATOM    102 HE21 LEU A   2      -7.202   3.141  11.729  0.00  0.00    +0.000 HD
ATOM    103 HE22 LEU A   2      -7.010   4.910  11.451  0.00  0.00    +0.000 HD
ATOM    104  OE1 LEU A   2      -9.518   3.112  11.292  0.00  0.00    +0.000 OA
ENDBRANCH  99 100
ENDBRANCH  98  99
ENDBRANCH  86  98
ENDBRANCH  82  86
ENDBRANCH  81  84
BRANCH  81 105
ATOM    105  C   UNK A   3     -14.069   0.962  11.198  0.00  0.00    +0.000 C 
BRANCH 105 106
ATOM    106  C   UNK A   3     -14.753   0.282   9.994  0.00  0.00    +0.000 A 
ATOM    107  C   UNK A   3     -15.918   0.833   9.488  0.00  0.00    +0.000 A 
ATOM    108  C   UNK A   3     -16.581   0.172   8.474  0.00  0.00    +0.000 A 
ATOM    109  C   UNK A   3     -16.119  -1.016   7.947  0.00  0.00    +0.000 A 
ATOM    110  C   UNK A   3     -14.962  -1.563   8.437  0.00  0.00    +0.000 A 
ATOM    111  C   UNK A   3     -14.284  -0.915   9.451  0.00  0.00    +0.000 A 
ENDBRANCH 105 106
ENDBRANCH  81 105
ENDBRANCH  77  81
ENDBRANCH  76  78
BRANCH  76 112
ATOM    112  CB  LEU A   4      -8.742  -1.050  10.497  0.00  0.00    +0.000 C 
BRANCH 112 113
ATOM    113  CG  LEU A   4      -8.296  -0.367  11.795  0.00  0.00    +0.000 A 
ATOM    114  CD2 LEU A   4      -7.799  -0.870  12.980  0.00  0.00    +0.000 A 
ATOM    115  NE2 LEU A   4      -7.660   0.171  13.796  0.00  0.00    +0.000 NA
ATOM    116  CE1 LEU A   4      -8.033   1.253  13.138  0.00  0.00    +0.000 A 
ATOM    117  ND1 LEU A   4      -8.414   0.933  11.940  0.00  0.00    +0.000 NA
ENDBRANCH 112 113
ENDBRANCH  76 112
ENDBRANCH  72  76
ENDBRANCH  71  74
BRANCH  71 118
ATOM    118  CB  VAL A   5     -10.384  -6.070  10.542  0.00  0.00    +0.000 C 
BRANCH 118 119
ATOM    119  CG  VAL A   5     -11.888  -5.893  10.275  0.00  0.00    +0.000 A 
ATOM    120  CD2 VAL A   5     -12.812  -6.716  10.927  0.00  0.00    +0.000 A 
ATOM    121  CE2 VAL A   5     -14.165  -6.588  10.631  0.00  0.00    +0.000 A 
ATOM    122  CZ  VAL A   5     -14.613  -5.656   9.710  0.00  0.00    +0.000 A 
ATOM    123  CE1 VAL A   5     -13.703  -4.837   9.069  0.00  0.00    +0.000 A 
ATOM    124  CD1 VAL A   5     -12.347  -4.951   9.345  0.00  0.00    +0.000 A 
ENDBRANCH 118 119
ENDBRANCH  71 118
ENDBRANCH  67  71
ENDBRANCH  66  68
BRANCH  66 125
ATOM    125  C   UNK A   6      -7.169  -8.618  12.513  0.00  0.00    +0.000 C 
ATOM    126  O   UNK A   6      -8.227  -8.903  13.093  0.00  0.00    +0.000 OA
ENDBRANCH  66 125
ENDBRANCH  65  66
ENDBRANCH   1  65
TORSDOF 50
REMARK  Name = ../refined-set-2016/1yda/1yda_pocket.pdb
REMARK  158 active torsions:
REMARK  status: ('A' for Active; 'I' for Inactive)
REMARK    1  A    between atoms: _1  and  _5
REMARK    2  A    between atoms: _5  and  _6
REMARK    3  A    between atoms: _5  and  _8
REMARK    4  A    between atoms: _8  and  _9
REMARK    5  A    between atoms: _19  and  _21
REMARK    6  A    between atoms: _21  and  _22
REMARK    7  A    between atoms: _21  and  _24
REMARK    8  A    between atoms: _24  and  _25
REMARK    9  A    between atoms: _30  and  _31
REMARK   10  A    between atoms: _33  and  _35
REMARK   11  A    between atoms: _35  and  _36
REMARK   12  A    between atoms: _35  and  _38
REMARK   13  A    between atoms: _38  and  _39
REMARK   14  A    between atoms: _49  and  _51
REMARK   15  A    between atoms: _51  and  _52
REMARK   16  A    between atoms: _51  and  _54
REMARK   17  A    between atoms: _54  and  _55
REMARK   18  A    between atoms: _58  and  _59
REMARK   19  A    between atoms: _64  and  _66
REMARK   20  A    between atoms: _66  and  _67
REMARK   21  A    between atoms: _66  and  _69
REMARK   22  A    between atoms: _69  and  _70
REMARK   23  A    between atoms: _75  and  _77
REMARK   24  A    between atoms: _77  and  _78
REMARK   25  A    between atoms: _77  and  _80
REMARK   26  A    between atoms: _80  and  _81
REMARK   27  A    between atoms: _86  and  _88
REMARK   28  A    between atoms: _88  and  _89
REMARK   29  A    between atoms: _88  and  _91
REMARK   30  A    between atoms: _91  and  _92
REMARK   31  A    between atoms: _97  and  _99
REMARK   32  A    between atoms: _99  and  _100
REMARK   33  A    between atoms: _99  and  _102
REMARK   34  A    between atoms: _102  and  _103
REMARK   35  A    between atoms: _106  and  _108
REMARK   36  A    between atoms: _108  and  _109
REMARK   37  A    between atoms: _108  and  _111
REMARK   38  A    between atoms: _111  and  _112
REMARK   39  A    between atoms: _112  and  _113
REMARK   40  A    between atoms: _118  and  _120
REMARK   41  A    between atoms: _120  and  _121
REMARK   42  A    between atoms: _120  and  _123
REMARK   43  A    between atoms: _123  and  _124
REMARK   44  A    between atoms: _130  and  _132
REMARK   45  A    between atoms: _132  and  _133
REMARK   46  A    between atoms: _132  and  _135
REMARK   47  A    between atoms: _135  and  _136
REMARK   48  A    between atoms: _141  and  _143
REMARK   49  A    between atoms: _143  and  _144
REMARK   50  A    between atoms: _143  and  _146
REMARK   51  A    between atoms: _146  and  _147
REMARK   52  A    between atoms: _153  and  _155
REMARK   53  A    between atoms: _155  and  _156
REMARK   54  A    between atoms: _155  and  _158
REMARK   55  A    between atoms: _158  and  _159
REMARK   56  A    between atoms: _163  and  ZN_427
REMARK   57  A    between atoms: _164  and  _166
REMARK   58  A    between atoms: _166  and  _167
REMARK   59  A    between atoms: _166  and  _169
REMARK   60  A    between atoms: _169  and  _170
REMARK   61  A    between atoms: _170  and  _171
REMARK   62  A    between atoms: _174  and  _176
REMARK   63  A    between atoms: _176  and  _177
REMARK   64  A    between atoms: _176  and  _179
REMARK   65  A    between atoms: _179  and  _180
REMARK   66  A    between atoms: _185  and  _187
REMARK   67  A    between atoms: _187  and  _188
REMARK   68  A    between atoms: _187  and  _190
REMARK   69  A    between atoms: _191  and  _192
REMARK   70  A    between atoms: _195  and  _197
REMARK   71  A    between atoms: _197  and  _198
REMARK   72  A    between atoms: _197  and  _200
REMARK   73  A    between atoms: _200  and  _201
REMARK   74  A    between atoms: _204  and  _206
REMARK   75  A    between atoms: _206  and  _207
REMARK   76  A    between atoms: _206  and  _209
REMARK   77  A    between atoms: _209  and  _210
REMARK   78  A    between atoms: _211  and  ZN_427
REMARK   79  A    between atoms: _215  and  _217
REMARK   80  A    between atoms: _217  and  _218
REMARK   81  A    between atoms: _217  and  _220
REMARK   82  A    between atoms: _220  and  _221
REMARK   83  A    between atoms: _224  and  _226
REMARK   84  A    between atoms: _226  and  _227
REMARK   85  A    between atoms: _226  and  _229
REMARK   86  A    between atoms: _232  and  _234
REMARK   87  A    between atoms: _234  and  _235
REMARK   88  A    between atoms: _234  and  _237
REMARK   89  A    between atoms: _237  and  _238
REMARK   90  A    between atoms: _243  and  _245
REMARK   91  A    between atoms: _245  and  _246
REMARK   92  A    between atoms: _245  and  _248
REMARK   93  A    between atoms: _248  and  _249
REMARK   94  A    between atoms: _255  and  _257
REMARK   95  A    between atoms: _257  and  _258
REMARK   96  A    between atoms: _257  and  _260
REMARK   97  A    between atoms: _263  and  _265
REMARK   98  A    between atoms: _265  and  _266
REMARK   99  A    between atoms: _265  and  _268
REMARK  100  A    between atoms: _268  and  _269
REMARK  101  A    between atoms: _272  and  _274
REMARK  102  A    between atoms: _274  and  _275
REMARK  103  A    between atoms: _278  and  _280
REMARK  104  A    between atoms: _280  and  _281
REMARK  105  A    between atoms: _280  and  _283
REMARK  106  A    between atoms: _286  and  _288
REMARK  107  A    between atoms: _288  and  _289
REMARK  108  A    between atoms: _288  and  _291
REMARK  109  A    between atoms: _291  and  _292
REMARK  110  A    between atoms: _295  and  _297
REMARK  111  A    between atoms: _297  and  _298
REMARK  112  A    between atoms: _300  and  _302
REMARK  113  A    between atoms: _302  and  _303
REMARK  114  A    between atoms: _302  and  _305
REMARK  115  A    between atoms: _305  and  _306
REMARK  116  A    between atoms: _308  and  _310
REMARK  117  A    between atoms: _310  and  _311
REMARK  118  A    between atoms: _310  and  _313
REMARK  119  A    between atoms: _313  and  _314
REMARK  120  A    between atoms: _314  and  _315
REMARK  121  A    between atoms: _318  and  _320
REMARK  122  A    between atoms: _320  and  _321
REMARK  123  A    between atoms: _320  and  _323
REMARK  124  A    between atoms: _323  and  _324
REMARK  125  A    between atoms: _327  and  _329
REMARK  126  A    between atoms: _329  and  _330
REMARK  127  A    between atoms: _329  and  _332
REMARK  128  A    between atoms: _332  and  _333
REMARK  129  A    between atoms: _337  and  _338
REMARK  130  A    between atoms: _344  and  _345
REMARK  131  A    between atoms: _350  and  _352
REMARK  132  A    between atoms: _352  and  _353
REMARK  133  A    between atoms: _352  and  _355
REMARK  134  A    between atoms: _355  and  _356
REMARK  135  A    between atoms: _359  and  _361
REMARK  136  A    between atoms: _361  and  _362
REMARK  137  A    between atoms: _361  and  _364
REMARK  138  A    between atoms: _364  and  _365
REMARK  139  A    between atoms: _368  and  _370
REMARK  140  A    between atoms: _370  and  _371
REMARK  141  A    between atoms: _370  and  _373
REMARK  142  A    between atoms: _375  and  _377
REMARK  143  A    between atoms: _377  and  _378
REMARK  144  A    between atoms: _377  and  _380
REMARK  145  A    between atoms: _383  and  _385
REMARK  146  A    between atoms: _385  and  _386
REMARK  147  A    between atoms: _385  and  _388
REMARK  148  A    between atoms: _388  and  _389
REMARK  149  A    between atoms: _399  and  _401
REMARK  150  A    between atoms: _401  and  _402
REMARK  151  A    between atoms: _401  and  _404
REMARK  152  A    between atoms: _404  and  _405
REMARK  153  A    between atoms: _410  and  _412
REMARK  154  A    between atoms: _412  and  _413
REMARK  155  A    between atoms: _412  and  _415
REMARK  156  A    between atoms: _415  and  _416
REMARK  157  A    between atoms: _416  and  _417
REMARK  158  A    between atoms: _417  and  _418
REMARK                            x       y       z     vdW  Elec       q    Type
REMARK                         _______ _______ _______ _____ _____    ______ ____
ROOT
ATOM      1  C   GLU A   1      -5.801  -8.481  21.263  0.00  0.00    +0.238 C 
ATOM      2  O   GLU A   1      -4.987  -9.037  21.994  0.00  0.00    -0.274 OA
ATOM      3  N   HIS A   2      -6.988  -8.040  21.715  0.00  0.00    -0.298 N 
ATOM      4  H   HIS A   2      -7.579  -7.484  21.064  0.00  0.00    +0.150 HD
ENDROOT
BRANCH   1   5
ATOM      5  CA  GLU A   1      -5.561  -8.206  19.762  0.00  0.00    +0.145 C 
BRANCH   5   6
ATOM      6  N   GLU A   1      -6.602  -8.876  19.013  0.00  0.00    -0.238 NA
ATOM      7  H   GLU A   1      -7.478  -8.358  18.800  0.00  0.00    +0.142 HD
ENDBRANCH   5   6
BRANCH   5   8
ATOM      8  CB  GLU A   1      -5.636  -6.717  19.407  0.00  0.00    +0.038 C 
BRANCH   8   9
ATOM      9  CG  GLU A   1      -5.254  -6.505  17.955  0.00  0.00    +0.116 C 
BRANCH   9  10
ATOM     10  CD  GLU A   1      -4.412  -5.262  17.802  0.00  0.00    +0.365 C 
ATOM     11  OE2 GLU A   1      -4.892  -4.141  17.948  0.00  0.00    -0.246 OA
ATOM     12  OE1 GLU A   1      -3.239  -5.431  17.533  0.00  0.00    -0.246 OA
ENDBRANCH   9  10
ENDBRANCH   8   9
ENDBRANCH   5   8
ENDBRANCH   1   5
BRANCH   3  13
ATOM     13  CA  HIS A   2      -7.499  -8.287  23.047  0.00  0.00    +0.143 C 
BRANCH  13  14
ATOM     14  C   HIS A   2      -7.995  -9.704  23.074  0.00  0.00    +0.227 C 
ATOM     15  O   HIS A   2      -8.513 -10.185  22.056  0.00  0.00    -0.286 OA
ENDBRANCH  13  14
BRANCH  13  16
ATOM     16  CB  HIS A   2      -8.660  -7.427  23.373  0.00  0.00    +0.075 C 
BRANCH  16  17
ATOM     17  CG  HIS A   2      -8.262  -5.988  23.499  0.00  0.00    +0.082 A 
ATOM     18  CD2 HIS A   2      -7.797  -5.426  24.660  0.00  0.00    +0.115 A 
ATOM     19  NE2 HIS A   2      -7.660  -4.165  24.399  0.00  0.00    -0.221 NA
ATOM     20  CE1 HIS A   2      -7.998  -3.890  23.162  0.00  0.00    +0.199 A 
ATOM     21  ND1 HIS A   2      -8.367  -5.021  22.598  0.00  0.00    -0.227 NA
ENDBRANCH  16  17
ENDBRANCH  13  16
ENDBRANCH   3  13
TORSDOF 9
REMARK  Name = ../refined-set-2016/1yda/1yda_pocket.pdb
REMARK  158 active torsions:
REMARK  status: ('A' for Active; 'I' for Inactive)
REMARK    1  A    between atoms: _1  and  _5
REMARK    2  A    between atoms: _5  and  _6
REMARK    3  A    between atoms: _5  and  _8
REMARK    4  A    between atoms: _8  and  _9
REMARK    5  A    between atoms: _19  and  _21
REMARK    6  A    between atoms: _21  and  _22
REMARK    7  A    between atoms: _21  and  _24
REMARK    8  A    between atoms: _24  and  _25
REMARK    9  A    between atoms: _30  and  _31
REMARK   10  A    between atoms: _33  and  _35
REMARK   11  A    between atoms: _35  and  _36
REMARK   12  A    between atoms: _35  and  _38
REMARK   13  A    between atoms: _38  and  _39
REMARK   14  A    between atoms: _49  and  _51
REMARK   15  A    between atoms: _51  and  _52
REMARK   16  A    between atoms: _51  and  _54
REMARK   17  A    between atoms: _54  and  _55
REMARK   18  A    between atoms: _58  and  _59
REMARK   19  A    between atoms: _64  and  _66
REMARK   20  A    between atoms: _66  and  _67
REMARK   21  A    between atoms: _66  and  _69
REMARK   22  A    between atoms: _69  and  _70
REMARK   23  A    between atoms: _75  and  _77
REMARK   24  A    between atoms: _77  and  _78
REMARK   25  A    between atoms: _77  and  _80
REMARK   26  A    between atoms: _80  and  _81
REMARK   27  A    between atoms: _86  and  _88
REMARK   28  A    between atoms: _88  and  _89
REMARK   29  A    between atoms: _88  and  _91
REMARK   30  A    between atoms: _91  and  _92
REMARK   31  A    between atoms: _97  and  _99
REMARK   32  A    between atoms: _99  and  _100
REMARK   33  A    between atoms: _99  and  _102
REMARK   34  A    between atoms: _102  and  _103
REMARK   35  A    between atoms: _106  and  _108
REMARK   36  A    between atoms: _108  and  _109
REMARK   37  A    between atoms: _108  and  _111
REMARK   38  A    between atoms: _111  and  _112
REMARK   39  A    between atoms: _112  and  _113
REMARK   40  A    between atoms: _118  and  _120
REMARK   41  A    between atoms: _120  and  _121
REMARK   42  A    between atoms: _120  and  _123
REMARK   43  A    between atoms: _123  and  _124
REMARK   44  A    between atoms: _130  and  _132
REMARK   45  A    between atoms: _132  and  _133
REMARK   46  A    between atoms: _132  and  _135
REMARK   47  A    between atoms: _135  and  _136
REMARK   48  A    between atoms: _141  and  _143
REMARK   49  A    between atoms: _143  and  _144
REMARK   50  A    between atoms: _143  and  _146
REMARK   51  A    between atoms: _146  and  _147
REMARK   52  A    between atoms: _153  and  _155
REMARK   53  A    between atoms: _155  and  _156
REMARK   54  A    between atoms: _155  and  _158
REMARK   55  A    between atoms: _158  and  _159
REMARK   56  A    between atoms: _163  and  ZN_427
REMARK   57  A    between atoms: _164  and  _166
REMARK   58  A    between atoms: _166  and  _167
REMARK   59  A    between atoms: _166  and  _169
REMARK   60  A    between atoms: _169  and  _170
REMARK   61  A    between atoms: _170  and  _171
REMARK   62  A    between atoms: _174  and  _176
REMARK   63  A    between atoms: _176  and  _177
REMARK   64  A    between atoms: _176  and  _179
REMARK   65  A    between atoms: _179  and  _180
REMARK   66  A    between atoms: _185  and  _187
REMARK   67  A    between atoms: _187  and  _188
REMARK   68  A    between atoms: _187  and  _190
REMARK   69  A    between atoms: _191  and  _192
REMARK   70  A    between atoms: _195  and  _197
REMARK   71  A    between atoms: _197  and  _198
REMARK   72  A    between atoms: _197  and  _200
REMARK   73  A    between atoms: _200  and  _201
REMARK   74  A    between atoms: _204  and  _206
REMARK   75  A    between atoms: _206  and  _207
REMARK   76  A    between atoms: _206  and  _209
REMARK   77  A    between atoms: _209  and  _210
REMARK   78  A    between atoms: _211  and  ZN_427
REMARK   79  A    between atoms: _215  and  _217
REMARK   80  A    between atoms: _217  and  _218
REMARK   81  A    between atoms: _217  and  _220
REMARK   82  A    between atoms: _220  and  _221
REMARK   83  A    between atoms: _224  and  _226
REMARK   84  A    between atoms: _226  and  _227
REMARK   85  A    between atoms: _226  and  _229
REMARK   86  A    between atoms: _232  and  _234
REMARK   87  A    between atoms: _234  and  _235
REMARK   88  A    between atoms: _234  and  _237
REMARK   89  A    between atoms: _237  and  _238
REMARK   90  A    between atoms: _243  and  _245
REMARK   91  A    between atoms: _245  and  _246
REMARK   92  A    between atoms: _245  and  _248
REMARK   93  A    between atoms: _248  and  _249
REMARK   94  A    between atoms: _255  and  _257
REMARK   95  A    between atoms: _257  and  _258
REMARK   96  A    between atoms: _257  and  _260
REMARK   97  A    between atoms: _263  and  _265
REMARK   98  A    between atoms: _265  and  _266
REMARK   99  A    between atoms: _265  and  _268
REMARK  100  A    between atoms: _268  and  _269
REMARK  101  A    between atoms: _272  and  _274
REMARK  102  A    between atoms: _274  and  _275
REMARK  103  A    between atoms: _278  and  _280
REMARK  104  A    between atoms: _280  and  _281
REMARK  105  A    between atoms: _280  and  _283
REMARK  106  A    between atoms: _286  and  _288
REMARK  107  A    between atoms: _288  and  _289
REMARK  108  A    between atoms: _288  and  _291
REMARK  109  A    between atoms: _291  and  _292
REMARK  110  A    between atoms: _295  and  _297
REMARK  111  A    between atoms: _297  and  _298
REMARK  112  A    between atoms: _300  and  _302
REMARK  113  A    between atoms: _302  and  _303
REMARK  114  A    between atoms: _302  and  _305
REMARK  115  A    between atoms: _305  and  _306
REMARK  116  A    between atoms: _308  and  _310
REMARK  117  A    between atoms: _310  and  _311
REMARK  118  A    between atoms: _310  and  _313
REMARK  119  A    between atoms: _313  and  _314
REMARK  120  A    between atoms: _314  and  _315
REMARK  121  A    between atoms: _318  and  _320
REMARK  122  A    between atoms: _320  and  _321
REMARK  123  A    between atoms: _320  and  _323
REMARK  124  A    between atoms: _323  and  _324
REMARK  125  A    between atoms: _327  and  _329
REMARK  126  A    between atoms: _329  and  _330
REMARK  127  A    between atoms: _329  and  _332
REMARK  128  A    between atoms: _332  and  _333
REMARK  129  A    between atoms: _337  and  _338
REMARK  130  A    between atoms: _344  and  _345
REMARK  131  A    between atoms: _350  and  _352
REMARK  132  A    between atoms: _352  and  _353
REMARK  133  A    between atoms: _352  and  _355
REMARK  134  A    between atoms: _355  and  _356
REMARK  135  A    between atoms: _359  and  _361
REMARK  136  A    between atoms: _361  and  _362
REMARK  137  A    between atoms: _361  and  _364
REMARK  138  A    between atoms: _364  and  _365
REMARK  139  A    between atoms: _368  and  _370
REMARK  140  A    between atoms: _370  and  _371
REMARK  141  A    between atoms: _370  and  _373
REMARK  142  A    between atoms: _375  and  _377
REMARK  143  A    between atoms: _377  and  _378
REMARK  144  A    between atoms: _377  and  _380
REMARK  145  A    between atoms: _383  and  _385
REMARK  146  A    between atoms: _385  and  _386
REMARK  147  A    between atoms: _385  and  _388
REMARK  148  A    between atoms: _388  and  _389
REMARK  149  A    between atoms: _399  and  _401
REMARK  150  A    between atoms: _401  and  _402
REMARK  151  A    between atoms: _401  and  _404
REMARK  152  A    between atoms: _404  and  _405
REMARK  153  A    between atoms: _410  and  _412
REMARK  154  A    between atoms: _412  and  _413
REMARK  155  A    between atoms: _412  and  _415
REMARK  156  A    between atoms: _415  and  _416
REMARK  157  A    between atoms: _416  and  _417
REMARK  158  A    between atoms: _417  and  _418
REMARK                            x       y       z     vdW  Elec       q    Type
REMARK                         _______ _______ _______ _____ _____    ______ ____
ROOT
ATOM      1  CB  PHE A   1      -7.605  12.818  14.454  0.00  0.00    +0.051 C 
ENDROOT
BRANCH   1   2
ATOM      2  CG  PHE A   1      -6.927  11.504  14.809  0.00  0.00    -0.020 A 
ATOM      3  CD2 PHE A   1      -7.705  10.441  15.189  0.00  0.00    -0.004 A 
ATOM      4  CE2 PHE A   1      -7.128   9.253  15.530  0.00  0.00    -0.000 A 
ATOM      5  CZ  PHE A   1      -5.767   9.128  15.492  0.00  0.00    -0.000 A 
ATOM      6  CE1 PHE A   1      -4.971  10.184  15.103  0.00  0.00    -0.000 A 
ATOM      7  CD1 PHE A   1      -5.556  11.373  14.757  0.00  0.00    -0.004 A 
ENDBRANCH   1   2
BRANCH   1   8
ATOM      8  CA  PHE A   1      -7.606  13.893  15.535  0.00  0.00    +0.137 C 
BRANCH   8   9
ATOM      9  N   PHE A   1      -8.250  15.097  15.018  0.00  0.00    -0.239 NA
ATOM     10  H   PHE A   1      -8.589  15.100  14.035  0.00  0.00    +0.142 HD
ENDBRANCH   8   9
BRANCH   8  11
ATOM     11  C   PHE A   1      -6.183  14.155  16.006  0.00  0.00    +0.224 C 
ATOM     12  O   PHE A   1      -5.694  13.558  16.962  0.00  0.00    -0.287 OA
ENDBRANCH   8  11
ENDBRANCH   1   8
TORSDOF 4
REMARK  Name = ../refined-set-2016/1yda/1yda_pocket.pdb
REMARK  158 active torsions:
REMARK  status: ('A' for Active; 'I' for Inactive)
REMARK    1  A    between atoms: _1  and  _5
REMARK    2  A    between atoms: _5  and  _6
REMARK    3  A    between atoms: _5  and  _8
REMARK    4  A    between atoms: _8  and  _9
REMARK    5  A    between atoms: _19  and  _21
REMARK    6  A    between atoms: _21  and  _22
REMARK    7  A    between atoms: _21  and  _24
REMARK    8  A    between atoms: _24  and  _25
REMARK    9  A    between atoms: _30  and  _31
REMARK   10  A    between atoms: _33  and  _35
REMARK   11  A    between atoms: _35  and  _36
REMARK   12  A    between atoms: _35  and  _38
REMARK   13  A    between atoms: _38  and  _39
REMARK   14  A    between atoms: _49  and  _51
REMARK   15  A    between atoms: _51  and  _52
REMARK   16  A    between atoms: _51  and  _54
REMARK   17  A    between atoms: _54  and  _55
REMARK   18  A    between atoms: _58  and  _59
REMARK   19  A    between atoms: _64  and  _66
REMARK   20  A    between atoms: _66  and  _67
REMARK   21  A    between atoms: _66  and  _69
REMARK   22  A    between atoms: _69  and  _70
REMARK   23  A    between atoms: _75  and  _77
REMARK   24  A    between atoms: _77  and  _78
REMARK   25  A    between atoms: _77  and  _80
REMARK   26  A    between atoms: _80  and  _81
REMARK   27  A    between atoms: _86  and  _88
REMARK   28  A    between atoms: _88  and  _89
REMARK   29  A    between atoms: _88  and  _91
REMARK   30  A    between atoms: _91  and  _92
REMARK   31  A    between atoms: _97  and  _99
REMARK   32  A    between atoms: _99  and  _100
REMARK   33  A    between atoms: _99  and  _102
REMARK   34  A    between atoms: _102  and  _103
REMARK   35  A    between atoms: _106  and  _108
REMARK   36  A    between atoms: _108  and  _109
REMARK   37  A    between atoms: _108  and  _111
REMARK   38  A    between atoms: _111  and  _112
REMARK   39  A    between atoms: _112  and  _113
REMARK   40  A    between atoms: _118  and  _120
REMARK   41  A    between atoms: _120  and  _121
REMARK   42  A    between atoms: _120  and  _123
REMARK   43  A    between atoms: _123  and  _124
REMARK   44  A    between atoms: _130  and  _132
REMARK   45  A    between atoms: _132  and  _133
REMARK   46  A    between atoms: _132  and  _135
REMARK   47  A    between atoms: _135  and  _136
REMARK   48  A    between atoms: _141  and  _143
REMARK   49  A    between atoms: _143  and  _144
REMARK   50  A    between atoms: _143  and  _146
REMARK   51  A    between atoms: _146  and  _147
REMARK   52  A    between atoms: _153  and  _155
REMARK   53  A    between atoms: _155  and  _156
REMARK   54  A    between atoms: _155  and  _158
REMARK   55  A    between atoms: _158  and  _159
REMARK   56  A    between atoms: _163  and  ZN_427
REMARK   57  A    between atoms: _164  and  _166
REMARK   58  A    between atoms: _166  and  _167
REMARK   59  A    between atoms: _166  and  _169
REMARK   60  A    between atoms: _169  and  _170
REMARK   61  A    between atoms: _170  and  _171
REMARK   62  A    between atoms: _174  and  _176
REMARK   63  A    between atoms: _176  and  _177
REMARK   64  A    between atoms: _176  and  _179
REMARK   65  A    between atoms: _179  and  _180
REMARK   66  A    between atoms: _185  and  _187
REMARK   67  A    between atoms: _187  and  _188
REMARK   68  A    between atoms: _187  and  _190
REMARK   69  A    between atoms: _191  and  _192
REMARK   70  A    between atoms: _195  and  _197
REMARK   71  A    between atoms: _197  and  _198
REMARK   72  A    between atoms: _197  and  _200
REMARK   73  A    between atoms: _200  and  _201
REMARK   74  A    between atoms: _204  and  _206
REMARK   75  A    between atoms: _206  and  _207
REMARK   76  A    between atoms: _206  and  _209
REMARK   77  A    between atoms: _209  and  _210
REMARK   78  A    between atoms: _211  and  ZN_427
REMARK   79  A    between atoms: _215  and  _217
REMARK   80  A    between atoms: _217  and  _218
REMARK   81  A    between atoms: _217  and  _220
REMARK   82  A    between atoms: _220  and  _221
REMARK   83  A    between atoms: _224  and  _226
REMARK   84  A    between atoms: _226  and  _227
REMARK   85  A    between atoms: _226  and  _229
REMARK   86  A    between atoms: _232  and  _234
REMARK   87  A    between atoms: _234  and  _235
REMARK   88  A    between atoms: _234  and  _237
REMARK   89  A    between atoms: _237  and  _238
REMARK   90  A    between atoms: _243  and  _245
REMARK   91  A    between atoms: _245  and  _246
REMARK   92  A    between atoms: _245  and  _248
REMARK   93  A    between atoms: _248  and  _249
REMARK   94  A    between atoms: _255  and  _257
REMARK   95  A    between atoms: _257  and  _258
REMARK   96  A    between atoms: _257  and  _260
REMARK   97  A    between atoms: _263  and  _265
REMARK   98  A    between atoms: _265  and  _266
REMARK   99  A    between atoms: _265  and  _268
REMARK  100  A    between atoms: _268  and  _269
REMARK  101  A    between atoms: _272  and  _274
REMARK  102  A    between atoms: _274  and  _275
REMARK  103  A    between atoms: _278  and  _280
REMARK  104  A    between atoms: _280  and  _281
REMARK  105  A    between atoms: _280  and  _283
REMARK  106  A    between atoms: _286  and  _288
REMARK  107  A    between atoms: _288  and  _289
REMARK  108  A    between atoms: _288  and  _291
REMARK  109  A    between atoms: _291  and  _292
REMARK  110  A    between atoms: _295  and  _297
REMARK  111  A    between atoms: _297  and  _298
REMARK  112  A    between atoms: _300  and  _302
REMARK  113  A    between atoms: _302  and  _303
REMARK  114  A    between atoms: _302  and  _305
REMARK  115  A    between atoms: _305  and  _306
REMARK  116  A    between atoms: _308  and  _310
REMARK  117  A    between atoms: _310  and  _311
REMARK  118  A    between atoms: _310  and  _313
REMARK  119  A    between atoms: _313  and  _314
REMARK  120  A    between atoms: _314  and  _315
REMARK  121  A    between atoms: _318  and  _320
REMARK  122  A    between atoms: _320  and  _321
REMARK  123  A    between atoms: _320  and  _323
REMARK  124  A    between atoms: _323  and  _324
REMARK  125  A    between atoms: _327  and  _329
REMARK  126  A    between atoms: _329  and  _330
REMARK  127  A    between atoms: _329  and  _332
REMARK  128  A    between atoms: _332  and  _333
REMARK  129  A    between atoms: _337  and  _338
REMARK  130  A    between atoms: _344  and  _345
REMARK  131  A    between atoms: _350  and  _352
REMARK  132  A    between atoms: _352  and  _353
REMARK  133  A    between atoms: _352  and  _355
REMARK  134  A    between atoms: _355  and  _356
REMARK  135  A    between atoms: _359  and  _361
REMARK  136  A    between atoms: _361  and  _362
REMARK  137  A    between atoms: _361  and  _364
REMARK  138  A    between atoms: _364  and  _365
REMARK  139  A    between atoms: _368  and  _370
REMARK  140  A    between atoms: _370  and  _371
REMARK  141  A    between atoms: _370  and  _373
REMARK  142  A    between atoms: _375  and  _377
REMARK  143  A    between atoms: _377  and  _378
REMARK  144  A    between atoms: _377  and  _380
REMARK  145  A    between atoms: _383  and  _385
REMARK  146  A    between atoms: _385  and  _386
REMARK  147  A    between atoms: _385  and  _388
REMARK  148  A    between atoms: _388  and  _389
REMARK  149  A    between atoms: _399  and  _401
REMARK  150  A    between atoms: _401  and  _402
REMARK  151  A    between atoms: _401  and  _404
REMARK  152  A    between atoms: _404  and  _405
REMARK  153  A    between atoms: _410  and  _412
REMARK  154  A    between atoms: _412  and  _413
REMARK  155  A    between atoms: _412  and  _415
REMARK  156  A    between atoms: _415  and  _416
REMARK  157  A    between atoms: _416  and  _417
REMARK  158  A    between atoms: _417  and  _418
REMARK                            x       y       z     vdW  Elec       q    Type
REMARK                         _______ _______ _______ _____ _____    ______ ____
ROOT
ATOM      1  CA  VAL A   1      -3.603  12.263  20.368  0.00  0.00    +0.133 C 
ENDROOT
BRANCH   1   2
ATOM      2  CB  VAL A   1      -2.996  11.457  19.176  0.00  0.00    +0.023 C 
ATOM      3  CG2 VAL A   1      -4.075  10.421  18.859  0.00  0.00    +0.002 C 
ATOM      4  CG1 VAL A   1      -2.557  12.299  17.970  0.00  0.00    +0.002 C 
ENDBRANCH   1   2
BRANCH   1   5
ATOM      5  N   VAL A   1      -4.645  13.156  19.868  0.00  0.00    -0.239 NA
ATOM      6  H   VAL A   1      -4.651  13.436  18.866  0.00  0.00    +0.142 HD
ENDBRANCH   1   5
BRANCH   1   7
ATOM      7  C   VAL A   1      -2.531  13.022  21.178  0.00  0.00    +0.224 C 
ATOM      8  O   VAL A   1      -1.478  12.516  21.554  0.00  0.00    -0.287 OA
ENDBRANCH   1   7
TORSDOF 3
REMARK  Name = ../refined-set-2016/1yda/1yda_pocket.pdb
REMARK  158 active torsions:
REMARK  status: ('A' for Active; 'I' for Inactive)
REMARK    1  A    between atoms: _1  and  _5
REMARK    2  A    between atoms: _5  and  _6
REMARK    3  A    between atoms: _5  and  _8
REMARK    4  A    between atoms: _8  and  _9
REMARK    5  A    between atoms: _19  and  _21
REMARK    6  A    between atoms: _21  and  _22
REMARK    7  A    between atoms: _21  and  _24
REMARK    8  A    between atoms: _24  and  _25
REMARK    9  A    between atoms: _30  and  _31
REMARK   10  A    between atoms: _33  and  _35
REMARK   11  A    between atoms: _35  and  _36
REMARK   12  A    between atoms: _35  and  _38
REMARK   13  A    between atoms: _38  and  _39
REMARK   14  A    between atoms: _49  and  _51
REMARK   15  A    between atoms: _51  and  _52
REMARK   16  A    between atoms: _51  and  _54
REMARK   17  A    between atoms: _54  and  _55
REMARK   18  A    between atoms: _58  and  _59
REMARK   19  A    between atoms: _64  and  _66
REMARK   20  A    between atoms: _66  and  _67
REMARK   21  A    between atoms: _66  and  _69
REMARK   22  A    between atoms: _69  and  _70
REMARK   23  A    between atoms: _75  and  _77
REMARK   24  A    between atoms: _77  and  _78
REMARK   25  A    between atoms: _77  and  _80
REMARK   26  A    between atoms: _80  and  _81
REMARK   27  A    between atoms: _86  and  _88
REMARK   28  A    between atoms: _88  and  _89
REMARK   29  A    between atoms: _88  and  _91
REMARK   30  A    between atoms: _91  and  _92
REMARK   31  A    between atoms: _97  and  _99
REMARK   32  A    between atoms: _99  and  _100
REMARK   33  A    between atoms: _99  and  _102
REMARK   34  A    between atoms: _102  and  _103
REMARK   35  A    between atoms: _106  and  _108
REMARK   36  A    between atoms: _108  and  _109
REMARK   37  A    between atoms: _108  and  _111
REMARK   38  A    between atoms: _111  and  _112
REMARK   39  A    between atoms: _112  and  _113
REMARK   40  A    between atoms: _118  and  _120
REMARK   41  A    between atoms: _120  and  _121
REMARK   42  A    between atoms: _120  and  _123
REMARK   43  A    between atoms: _123  and  _124
REMARK   44  A    between atoms: _130  and  _132
REMARK   45  A    between atoms: _132  and  _133
REMARK   46  A    between atoms: _132  and  _135
REMARK   47  A    between atoms: _135  and  _136
REMARK   48  A    between atoms: _141  and  _143
REMARK   49  A    between atoms: _143  and  _144
REMARK   50  A    between atoms: _143  and  _146
REMARK   51  A    between atoms: _146  and  _147
REMARK   52  A    between atoms: _153  and  _155
REMARK   53  A    between atoms: _155  and  _156
REMARK   54  A    between atoms: _155  and  _158
REMARK   55  A    between atoms: _158  and  _159
REMARK   56  A    between atoms: _163  and  ZN_427
REMARK   57  A    between atoms: _164  and  _166
REMARK   58  A    between atoms: _166  and  _167
REMARK   59  A    between atoms: _166  and  _169
REMARK   60  A    between atoms: _169  and  _170
REMARK   61  A    between atoms: _170  and  _171
REMARK   62  A    between atoms: _174  and  _176
REMARK   63  A    between atoms: _176  and  _177
REMARK   64  A    between atoms: _176  and  _179
REMARK   65  A    between atoms: _179  and  _180
REMARK   66  A    between atoms: _185  and  _187
REMARK   67  A    between atoms: _187  and  _188
REMARK   68  A    between atoms: _187  and  _190
REMARK   69  A    between atoms: _191  and  _192
REMARK   70  A    between atoms: _195  and  _197
REMARK   71  A    between atoms: _197  and  _198
REMARK   72  A    between atoms: _197  and  _200
REMARK   73  A    between atoms: _200  and  _201
REMARK   74  A    between atoms: _204  and  _206
REMARK   75  A    between atoms: _206  and  _207
REMARK   76  A    between atoms: _206  and  _209
REMARK   77  A    between atoms: _209  and  _210
REMARK   78  A    between atoms: _211  and  ZN_427
REMARK   79  A    between atoms: _215  and  _217
REMARK   80  A    between atoms: _217  and  _218
REMARK   81  A    between atoms: _217  and  _220
REMARK   82  A    between atoms: _220  and  _221
REMARK   83  A    between atoms: _224  and  _226
REMARK   84  A    between atoms: _226  and  _227
REMARK   85  A    between atoms: _226  and  _229
REMARK   86  A    between atoms: _232  and  _234
REMARK   87  A    between atoms: _234  and  _235
REMARK   88  A    between atoms: _234  and  _237
REMARK   89  A    between atoms: _237  and  _238
REMARK   90  A    between atoms: _243  and  _245
REMARK   91  A    between atoms: _245  and  _246
REMARK   92  A    between atoms: _245  and  _248
REMARK   93  A    between atoms: _248  and  _249
REMARK   94  A    between atoms: _255  and  _257
REMARK   95  A    between atoms: _257  and  _258
REMARK   96  A    between atoms: _257  and  _260
REMARK   97  A    between atoms: _263  and  _265
REMARK   98  A    between atoms: _265  and  _266
REMARK   99  A    between atoms: _265  and  _268
REMARK  100  A    between atoms: _268  and  _269
REMARK  101  A    between atoms: _272  and  _274
REMARK  102  A    between atoms: _274  and  _275
REMARK  103  A    between atoms: _278  and  _280
REMARK  104  A    between atoms: _280  and  _281
REMARK  105  A    between atoms: _280  and  _283
REMARK  106  A    between atoms: _286  and  _288
REMARK  107  A    between atoms: _288  and  _289
REMARK  108  A    between atoms: _288  and  _291
REMARK  109  A    between atoms: _291  and  _292
REMARK  110  A    between atoms: _295  and  _297
REMARK  111  A    between atoms: _297  and  _298
REMARK  112  A    between atoms: _300  and  _302
REMARK  113  A    between atoms: _302  and  _303
REMARK  114  A    between atoms: _302  and  _305
REMARK  115  A    between atoms: _305  and  _306
REMARK  116  A    between atoms: _308  and  _310
REMARK  117  A    between atoms: _310  and  _311
REMARK  118  A    between atoms: _310  and  _313
REMARK  119  A    between atoms: _313  and  _314
REMARK  120  A    between atoms: _314  and  _315
REMARK  121  A    between atoms: _318  and  _320
REMARK  122  A    between atoms: _320  and  _321
REMARK  123  A    between atoms: _320  and  _323
REMARK  124  A    between atoms: _323  and  _324
REMARK  125  A    between atoms: _327  and  _329
REMARK  126  A    between atoms: _329  and  _330
REMARK  127  A    between atoms: _329  and  _332
REMARK  128  A    between atoms: _332  and  _333
REMARK  129  A    between atoms: _337  and  _338
REMARK  130  A    between atoms: _344  and  _345
REMARK  131  A    between atoms: _350  and  _352
REMARK  132  A    between atoms: _352  and  _353
REMARK  133  A    between atoms: _352  and  _355
REMARK  134  A    between atoms: _355  and  _356
REMARK  135  A    between atoms: _359  and  _361
REMARK  136  A    between atoms: _361  and  _362
REMARK  137  A    between atoms: _361  and  _364
REMARK  138  A    between atoms: _364  and  _365
REMARK  139  A    between atoms: _368  and  _370
REMARK  140  A    between atoms: _370  and  _371
REMARK  141  A    between atoms: _370  and  _373
REMARK  142  A    between atoms: _375  and  _377
REMARK  143  A    between atoms: _377  and  _378
REMARK  144  A    between atoms: _377  and  _380
REMARK  145  A    between atoms: _383  and  _385
REMARK  146  A    between atoms: _385  and  _386
REMARK  147  A    between atoms: _385  and  _388
REMARK  148  A    between atoms: _388  and  _389
REMARK  149  A    between atoms: _399  and  _401
REMARK  150  A    between atoms: _401  and  _402
REMARK  151  A    between atoms: _401  and  _404
REMARK  152  A    between atoms: _404  and  _405
REMARK  153  A    between atoms: _410  and  _412
REMARK  154  A    between atoms: _412  and  _413
REMARK  155  A    between atoms: _412  and  _415
REMARK  156  A    between atoms: _415  and  _416
REMARK  157  A    between atoms: _416  and  _417
REMARK  158  A    between atoms: _417  and  _418
REMARK                            x       y       z     vdW  Elec       q    Type
REMARK                         _______ _______ _______ _____ _____    ______ ____
ROOT
ATOM      1  CA  VAL A   3     -11.958   2.706  20.246  0.00  0.00    +0.149 C 
ENDROOT
BRANCH   1   3
ATOM      2  C   ALA A   2     -12.255   4.943  21.072  0.00  0.00    +0.241 C 
ATOM      3  N   VAL A   3     -11.847   3.707  21.285  0.00  0.00    -0.297 N 
ATOM      4  H   VAL A   3     -11.442   3.450  22.208  0.00  0.00    +0.150 HD
ATOM      5  O   ALA A   2     -12.791   5.291  19.985  0.00  0.00    -0.273 OA
BRANCH   2   6
ATOM      6  CA  ALA A   2     -12.098   5.948  22.183  0.00  0.00    +0.149 C 
ATOM      7  CB  ALA A   2     -13.470   6.422  22.537  0.00  0.00    +0.031 C 
BRANCH   6  10
ATOM      8  C   LEU A   1     -10.438   7.720  22.328  0.00  0.00    +0.238 C 
ATOM      9  O   LEU A   1     -10.229   7.475  23.527  0.00  0.00    -0.274 OA
ATOM     10  N   ALA A   2     -11.320   7.014  21.624  0.00  0.00    -0.297 N 
ATOM     11  H   ALA A   2     -11.451   7.247  20.619  0.00  0.00    +0.150 HD
BRANCH   8  12
ATOM     12  CA  LEU A   1      -9.597   8.745  21.588  0.00  0.00    +0.145 C 
BRANCH  12  13
ATOM     13  N   LEU A   1      -8.978   9.744  22.440  0.00  0.00    -0.238 NA
ATOM     14  H   LEU A   1      -8.459   9.419  23.281  0.00  0.00    +0.142 HD
ENDBRANCH  12  13
BRANCH  12  15
ATOM     15  CB  LEU A   1      -8.563   7.903  20.808  0.00  0.00    +0.026 C 
BRANCH  15  16
ATOM     16  CG  LEU A   1      -7.438   8.582  19.973  0.00  0.00    +0.002 C 
ATOM     17  CD2 LEU A   1      -6.625   7.525  19.243  0.00  0.00    +0.000 C 
ATOM     18  CD1 LEU A   1      -8.074   9.637  19.034  0.00  0.00    +0.000 C 
ENDBRANCH  15  16
ENDBRANCH  12  15
ENDBRANCH   8  12
ENDBRANCH   6  10
ENDBRANCH   2   6
ENDBRANCH   1   3
BRANCH   1  19
ATOM     19  C   VAL A   3     -12.909   1.604  20.727  0.00  0.00    +0.241 C 
ATOM     20  O   VAL A   3     -12.748   0.987  21.791  0.00  0.00    -0.273 OA
ATOM     21  N   LEU A   4     -13.945   1.410  19.913  0.00  0.00    -0.297 N 
ATOM     22  H   LEU A   4     -14.000   1.974  19.041  0.00  0.00    +0.150 HD
BRANCH  21  23
ATOM     23  CA  LEU A   4     -14.988   0.463  20.178  0.00  0.00    +0.149 C 
BRANCH  23  24
ATOM     24  C   LEU A   4     -14.449  -0.791  19.536  0.00  0.00    +0.241 C 
ATOM     25  N   GLY A   5     -14.290  -1.904  20.252  0.00  0.00    -0.296 N 
ATOM     26  H   GLY A   5     -14.647  -1.909  21.229  0.00  0.00    +0.150 HD
ATOM     27  O   LEU A   4     -14.130  -0.750  18.340  0.00  0.00    -0.273 OA
BRANCH  25  28
ATOM     28  CA  GLY A   5     -13.655  -3.102  19.760  0.00  0.00    +0.163 C 
BRANCH  28  29
ATOM     29  C   GLY A   5     -14.676  -4.206  19.682  0.00  0.00    +0.229 C 
ATOM     30  O   GLY A   5     -15.505  -4.338  20.587  0.00  0.00    -0.286 OA
ENDBRANCH  28  29
ENDBRANCH  25  28
ENDBRANCH  23  24
BRANCH  23  31
ATOM     31  CB  LEU A   4     -16.203   1.081  19.537  0.00  0.00    +0.029 C 
BRANCH  31  32
ATOM     32  CG  LEU A   4     -17.632   0.748  19.943  0.00  0.00    +0.002 C 
ATOM     33  CD2 LEU A   4     -17.988  -0.581  19.396  0.00  0.00    +0.000 C 
ATOM     34  CD1 LEU A   4     -18.634   1.697  19.305  0.00  0.00    +0.000 C 
ENDBRANCH  31  32
ENDBRANCH  23  31
ENDBRANCH  21  23
ENDBRANCH   1  19
BRANCH   1  35
ATOM     35  CB  VAL A   3     -10.526   2.178  19.902  0.00  0.00    +0.027 C 
ATOM     36  CG2 VAL A   3      -9.657   3.349  19.462  0.00  0.00    +0.002 C 
ATOM     37  CG1 VAL A   3     -10.543   1.237  18.711  0.00  0.00    +0.002 C 
ENDBRANCH   1  35
TORSDOF 15
REMARK  Name = ../refined-set-2016/1yda/1yda_pocket.pdb
REMARK  158 active torsions:
REMARK  status: ('A' for Active; 'I' for Inactive)
REMARK    1  A    between atoms: _1  and  _5
REMARK    2  A    between atoms: _5  and  _6
REMARK    3  A    between atoms: _5  and  _8
REMARK    4  A    between atoms: _8  and  _9
REMARK    5  A    between atoms: _19  and  _21
REMARK    6  A    between atoms: _21  and  _22
REMARK    7  A    between atoms: _21  and  _24
REMARK    8  A    between atoms: _24  and  _25
REMARK    9  A    between atoms: _30  and  _31
REMARK   10  A    between atoms: _33  and  _35
REMARK   11  A    between atoms: _35  and  _36
REMARK   12  A    between atoms: _35  and  _38
REMARK   13  A    between atoms: _38  and  _39
REMARK   14  A    between atoms: _49  and  _51
REMARK   15  A    between atoms: _51  and  _52
REMARK   16  A    between atoms: _51  and  _54
REMARK   17  A    between atoms: _54  and  _55
REMARK   18  A    between atoms: _58  and  _59
REMARK   19  A    between atoms: _64  and  _66
REMARK   20  A    between atoms: _66  and  _67
REMARK   21  A    between atoms: _66  and  _69
REMARK   22  A    between atoms: _69  and  _70
REMARK   23  A    between atoms: _75  and  _77
REMARK   24  A    between atoms: _77  and  _78
REMARK   25  A    between atoms: _77  and  _80
REMARK   26  A    between atoms: _80  and  _81
REMARK   27  A    between atoms: _86  and  _88
REMARK   28  A    between atoms: _88  and  _89
REMARK   29  A    between atoms: _88  and  _91
REMARK   30  A    between atoms: _91  and  _92
REMARK   31  A    between atoms: _97  and  _99
REMARK   32  A    between atoms: _99  and  _100
REMARK   33  A    between atoms: _99  and  _102
REMARK   34  A    between atoms: _102  and  _103
REMARK   35  A    between atoms: _106  and  _108
REMARK   36  A    between atoms: _108  and  _109
REMARK   37  A    between atoms: _108  and  _111
REMARK   38  A    between atoms: _111  and  _112
REMARK   39  A    between atoms: _112  and  _113
REMARK   40  A    between atoms: _118  and  _120
REMARK   41  A    between atoms: _120  and  _121
REMARK   42  A    between atoms: _120  and  _123
REMARK   43  A    between atoms: _123  and  _124
REMARK   44  A    between atoms: _130  and  _132
REMARK   45  A    between atoms: _132  and  _133
REMARK   46  A    between atoms: _132  and  _135
REMARK   47  A    between atoms: _135  and  _136
REMARK   48  A    between atoms: _141  and  _143
REMARK   49  A    between atoms: _143  and  _144
REMARK   50  A    between atoms: _143  and  _146
REMARK   51  A    between atoms: _146  and  _147
REMARK   52  A    between atoms: _153  and  _155
REMARK   53  A    between atoms: _155  and  _156
REMARK   54  A    between atoms: _155  and  _158
REMARK   55  A    between atoms: _158  and  _159
REMARK   56  A    between atoms: _163  and  ZN_427
REMARK   57  A    between atoms: _164  and  _166
REMARK   58  A    between atoms: _166  and  _167
REMARK   59  A    between atoms: _166  and  _169
REMARK   60  A    between atoms: _169  and  _170
REMARK   61  A    between atoms: _170  and  _171
REMARK   62  A    between atoms: _174  and  _176
REMARK   63  A    between atoms: _176  and  _177
REMARK   64  A    between atoms: _176  and  _179
REMARK   65  A    between atoms: _179  and  _180
REMARK   66  A    between atoms: _185  and  _187
REMARK   67  A    between atoms: _187  and  _188
REMARK   68  A    between atoms: _187  and  _190
REMARK   69  A    between atoms: _191  and  _192
REMARK   70  A    between atoms: _195  and  _197
REMARK   71  A    between atoms: _197  and  _198
REMARK   72  A    between atoms: _197  and  _200
REMARK   73  A    between atoms: _200  and  _201
REMARK   74  A    between atoms: _204  and  _206
REMARK   75  A    between atoms: _206  and  _207
REMARK   76  A    between atoms: _206  and  _209
REMARK   77  A    between atoms: _209  and  _210
REMARK   78  A    between atoms: _211  and  ZN_427
REMARK   79  A    between atoms: _215  and  _217
REMARK   80  A    between atoms: _217  and  _218
REMARK   81  A    between atoms: _217  and  _220
REMARK   82  A    between atoms: _220  and  _221
REMARK   83  A    between atoms: _224  and  _226
REMARK   84  A    between atoms: _226  and  _227
REMARK   85  A    between atoms: _226  and  _229
REMARK   86  A    between atoms: _232  and  _234
REMARK   87  A    between atoms: _234  and  _235
REMARK   88  A    between atoms: _234  and  _237
REMARK   89  A    between atoms: _237  and  _238
REMARK   90  A    between atoms: _243  and  _245
REMARK   91  A    between atoms: _245  and  _246
REMARK   92  A    between atoms: _245  and  _248
REMARK   93  A    between atoms: _248  and  _249
REMARK   94  A    between atoms: _255  and  _257
REMARK   95  A    between atoms: _257  and  _258
REMARK   96  A    between atoms: _257  and  _260
REMARK   97  A    between atoms: _263  and  _265
REMARK   98  A    between atoms: _265  and  _266
REMARK   99  A    between atoms: _265  and  _268
REMARK  100  A    between atoms: _268  and  _269
REMARK  101  A    between atoms: _272  and  _274
REMARK  102  A    between atoms: _274  and  _275
REMARK  103  A    between atoms: _278  and  _280
REMARK  104  A    between atoms: _280  and  _281
REMARK  105  A    between atoms: _280  and  _283
REMARK  106  A    between atoms: _286  and  _288
REMARK  107  A    between atoms: _288  and  _289
REMARK  108  A    between atoms: _288  and  _291
REMARK  109  A    between atoms: _291  and  _292
REMARK  110  A    between atoms: _295  and  _297
REMARK  111  A    between atoms: _297  and  _298
REMARK  112  A    between atoms: _300  and  _302
REMARK  113  A    between atoms: _302  and  _303
REMARK  114  A    between atoms: _302  and  _305
REMARK  115  A    between atoms: _305  and  _306
REMARK  116  A    between atoms: _308  and  _310
REMARK  117  A    between atoms: _310  and  _311
REMARK  118  A    between atoms: _310  and  _313
REMARK  119  A    between atoms: _313  and  _314
REMARK  120  A    between atoms: _314  and  _315
REMARK  121  A    between atoms: _318  and  _320
REMARK  122  A    between atoms: _320  and  _321
REMARK  123  A    between atoms: _320  and  _323
REMARK  124  A    between atoms: _323  and  _324
REMARK  125  A    between atoms: _327  and  _329
REMARK  126  A    between atoms: _329  and  _330
REMARK  127  A    between atoms: _329  and  _332
REMARK  128  A    between atoms: _332  and  _333
REMARK  129  A    between atoms: _337  and  _338
REMARK  130  A    between atoms: _344  and  _345
REMARK  131  A    between atoms: _350  and  _352
REMARK  132  A    between atoms: _352  and  _353
REMARK  133  A    between atoms: _352  and  _355
REMARK  134  A    between atoms: _355  and  _356
REMARK  135  A    between atoms: _359  and  _361
REMARK  136  A    between atoms: _361  and  _362
REMARK  137  A    between atoms: _361  and  _364
REMARK  138  A    between atoms: _364  and  _365
REMARK  139  A    between atoms: _368  and  _370
REMARK  140  A    between atoms: _370  and  _371
REMARK  141  A    between atoms: _370  and  _373
REMARK  142  A    between atoms: _375  and  _377
REMARK  143  A    between atoms: _377  and  _378
REMARK  144  A    between atoms: _377  and  _380
REMARK  145  A    between atoms: _383  and  _385
REMARK  146  A    between atoms: _385  and  _386
REMARK  147  A    between atoms: _385  and  _388
REMARK  148  A    between atoms: _388  and  _389
REMARK  149  A    between atoms: _399  and  _401
REMARK  150  A    between atoms: _401  and  _402
REMARK  151  A    between atoms: _401  and  _404
REMARK  152  A    between atoms: _404  and  _405
REMARK  153  A    between atoms: _410  and  _412
REMARK  154  A    between atoms: _412  and  _413
REMARK  155  A    between atoms: _412  and  _415
REMARK  156  A    between atoms: _415  and  _416
REMARK  157  A    between atoms: _416  and  _417
REMARK  158  A    between atoms: _417  and  _418
REMARK                            x       y       z     vdW  Elec       q    Type
REMARK                         _______ _______ _______ _____ _____    ______ ____
ROOT
ATOM      1  CA  THR A   4       0.112   0.121  16.015  0.00  0.00    +0.176 C 
ENDROOT
BRANCH   1   2
ATOM      2  C   THR A   4       0.938   1.365  16.283  0.00  0.00    +0.246 C 
ATOM      3  O   THR A   4       0.335   2.316  16.796  0.00  0.00    -0.273 OA
ATOM      4  N   PRO A   5       2.254   1.463  16.028  0.00  0.00    -0.272 N 
ATOM      5  CA  PRO A   5       3.023   2.692  16.146  0.00  0.00    +0.152 C 
ATOM      6  CB  PRO A   5       4.255   2.398  15.386  0.00  0.00    +0.031 C 
ATOM      7  CG  PRO A   5       4.496   0.949  15.683  0.00  0.00    +0.024 C 
ATOM      8  CD  PRO A   5       3.086   0.391  15.516  0.00  0.00    +0.094 C 
BRANCH   5   9
ATOM      9  C   PRO A   5       2.269   3.906  15.641  0.00  0.00    +0.244 C 
ATOM     10  N   PRO A   6       2.237   5.104  16.201  0.00  0.00    -0.272 N 
ATOM     11  CA  PRO A   6       3.042   5.515  17.340  0.00  0.00    +0.152 C 
ATOM     12  CB  PRO A   6       2.974   7.034  17.291  0.00  0.00    +0.031 C 
ATOM     13  CG  PRO A   6       2.092   7.376  16.112  0.00  0.00    +0.024 C 
ATOM     14  CD  PRO A   6       1.295   6.126  15.823  0.00  0.00    +0.094 C 
ATOM     15  O   PRO A   5       1.590   3.744  14.643  0.00  0.00    -0.273 OA
BRANCH  11  16
ATOM     16  C   PRO A   6       2.693   4.957  18.747  0.00  0.00    +0.241 C 
ATOM     17  O   PRO A   6       3.241   5.447  19.736  0.00  0.00    -0.273 OA
ATOM     18  N   LEU A   7       1.753   4.008  18.899  0.00  0.00    -0.297 N 
ATOM     19  H   LEU A   7       1.265   3.665  18.047  0.00  0.00    +0.150 HD
BRANCH  18  20
ATOM     20  CA  LEU A   7       1.370   3.422  20.200  0.00  0.00    +0.149 C 
BRANCH  20  21
ATOM     21  C   LEU A   7       1.017   4.456  21.296  0.00  0.00    +0.241 C 
ATOM     22  O   LEU A   7       1.095   4.229  22.515  0.00  0.00    -0.273 OA
ATOM     23  N   LEU A   8       0.491   5.609  20.871  0.00  0.00    -0.298 N 
ATOM     24  H   LEU A   8       0.336   5.744  19.851  0.00  0.00    +0.150 HD
BRANCH  23  25
ATOM     25  CA  LEU A   8       0.128   6.679  21.780  0.00  0.00    +0.137 C 
BRANCH  25  26
ATOM     26  C   LEU A   8      -0.916   6.282  22.838  0.00  0.00    +0.227 C 
ATOM     27  O   LEU A   8      -1.989   5.667  22.624  0.00  0.00    -0.286 OA
ENDBRANCH  25  26
BRANCH  25  28
ATOM     28  CB  LEU A   8      -0.368   7.882  20.951  0.00  0.00    +0.028 C 
BRANCH  28  29
ATOM     29  CG  LEU A   8       0.629   8.473  19.922  0.00  0.00    +0.002 C 
ATOM     30  CD2 LEU A   8       1.824   8.996  20.695  0.00  0.00    +0.000 C 
ATOM     31  CD1 LEU A   8       0.007   9.615  19.066  0.00  0.00    +0.000 C 
ENDBRANCH  28  29
ENDBRANCH  25  28
ENDBRANCH  23  25
ENDBRANCH  20  21
BRANCH  20  32
ATOM     32  CB  LEU A   7       2.503   2.477  20.656  0.00  0.00    +0.029 C 
BRANCH  32  33
ATOM     33  CG  LEU A   7       2.900   1.305  19.711  0.00  0.00    +0.002 C 
ATOM     34  CD2 LEU A   7       4.184   0.588  20.154  0.00  0.00    +0.000 C 
ATOM     35  CD1 LEU A   7       1.774   0.316  19.708  0.00  0.00    +0.000 C 
ENDBRANCH  32  33
ENDBRANCH  20  32
ENDBRANCH  18  20
ENDBRANCH  11  16
ENDBRANCH   5   9
ENDBRANCH   1   2
BRANCH   1  38
ATOM     36  C   THR A   3      -0.971  -0.899  17.967  0.00  0.00    +0.243 C 
ATOM     37  O   THR A   3      -0.458  -1.982  17.693  0.00  0.00    -0.273 OA
ATOM     38  N   THR A   4      -0.824   0.119  17.124  0.00  0.00    -0.295 N 
ATOM     39  H   THR A   4      -1.414   0.963  17.268  0.00  0.00    +0.150 HD
BRANCH  36  40
ATOM     40  CA  THR A   3      -1.928  -0.778  19.160  0.00  0.00    +0.176 C 
BRANCH  40  43
ATOM     41  C   GLU A   2      -2.379   1.453  19.958  0.00  0.00    +0.241 C 
ATOM     42  O   GLU A   2      -1.381   1.391  20.686  0.00  0.00    -0.273 OA
ATOM     43  N   THR A   3      -2.766   0.397  19.249  0.00  0.00    -0.295 N 
ATOM     44  H   THR A   3      -3.680   0.416  18.754  0.00  0.00    +0.150 HD
BRANCH  41  45
ATOM     45  CA  GLU A   2      -3.224   2.728  19.973  0.00  0.00    +0.149 C 
BRANCH  45  48
ATOM     46  C   SER A   1      -3.625   2.405  22.352  0.00  0.00    +0.241 C 
ATOM     47  O   SER A   1      -4.407   1.463  22.154  0.00  0.00    -0.274 OA
ATOM     48  N   GLU A   2      -3.153   3.173  21.358  0.00  0.00    -0.297 N 
ATOM     49  H   GLU A   2      -2.731   4.098  21.579  0.00  0.00    +0.150 HD
BRANCH  46  50
ATOM     50  CA  SER A   1      -3.135   2.860  23.752  0.00  0.00    +0.174 C 
BRANCH  50  51
ATOM     51  N   SER A   1      -3.838   2.244  24.879  0.00  0.00    -0.236 NA
ATOM     52  H   SER A   1      -4.040   1.225  24.837  0.00  0.00    +0.142 HD
ENDBRANCH  50  51
BRANCH  50  53
ATOM     53  CB  SER A   1      -1.624   2.563  23.838  0.00  0.00    +0.163 C 
BRANCH  53  54
ATOM     54  OG  SER A   1      -1.301   1.175  23.712  0.00  0.00    -0.380 OA
ATOM     55  H   SER A   1      -1.617   0.842  22.835  0.00  0.00    +0.211 HD
ENDBRANCH  53  54
ENDBRANCH  50  53
ENDBRANCH  46  50
ENDBRANCH  45  48
BRANCH  45  56
ATOM     56  CB  GLU A   2      -2.583   3.738  19.074  0.00  0.00    +0.041 C 
BRANCH  56  57
ATOM     57  CG  GLU A   2      -3.303   5.047  18.902  0.00  0.00    +0.116 C 
BRANCH  57  58
ATOM     58  CD  GLU A   2      -2.523   6.026  18.019  0.00  0.00    +0.365 C 
ATOM     59  OE2 GLU A   2      -1.309   5.845  17.892  0.00  0.00    -0.246 OA
ATOM     60  OE1 GLU A   2      -3.108   6.980  17.491  0.00  0.00    -0.246 OA
ENDBRANCH  57  58
ENDBRANCH  56  57
ENDBRANCH  45  56
ENDBRANCH  41  45
ENDBRANCH  40  43
BRANCH  40  61
ATOM     61  CB  THR A   3      -2.826  -2.001  19.186  0.00  0.00    +0.137 C 
ATOM     62  CG2 THR A   3      -3.848  -2.059  20.337  0.00  0.00    +0.034 C 
BRANCH  61  63
ATOM     63  OG1 THR A   3      -3.439  -1.974  17.871  0.00  0.00    -0.382 OA
ATOM     64  HG1 THR A   3      -4.056  -2.743  17.780  0.00  0.00    +0.210 HD
ENDBRANCH  61  63
ENDBRANCH  40  61
ENDBRANCH  36  40
ENDBRANCH   1  38
BRANCH   1  65
ATOM     65  CB  THR A   4      -0.646   0.242  14.651  0.00  0.00    +0.137 C 
ATOM     66  CG2 THR A   4      -1.328  -1.037  14.276  0.00  0.00    +0.034 C 
BRANCH  65  67
ATOM     67  OG1 THR A   4      -1.601   1.296  14.765  0.00  0.00    -0.382 OA
ATOM     68  HG1 THR A   4      -2.092   1.389  13.910  0.00  0.00    +0.210 HD
ENDBRANCH  65  67
ENDBRANCH   1  65
TORSDOF 27
REMARK  Name = ../refined-set-2016/1yda/1yda_pocket.pdb
REMARK  158 active torsions:
REMARK  status: ('A' for Active; 'I' for Inactive)
REMARK    1  A    between atoms: _1  and  _5
REMARK    2  A    between atoms: _5  and  _6
REMARK    3  A    between atoms: _5  and  _8
REMARK    4  A    between atoms: _8  and  _9
REMARK    5  A    between atoms: _19  and  _21
REMARK    6  A    between atoms: _21  and  _22
REMARK    7  A    between atoms: _21  and  _24
REMARK    8  A    between atoms: _24  and  _25
REMARK    9  A    between atoms: _30  and  _31
REMARK   10  A    between atoms: _33  and  _35
REMARK   11  A    between atoms: _35  and  _36
REMARK   12  A    between atoms: _35  and  _38
REMARK   13  A    between atoms: _38  and  _39
REMARK   14  A    between atoms: _49  and  _51
REMARK   15  A    between atoms: _51  and  _52
REMARK   16  A    between atoms: _51  and  _54
REMARK   17  A    between atoms: _54  and  _55
REMARK   18  A    between atoms: _58  and  _59
REMARK   19  A    between atoms: _64  and  _66
REMARK   20  A    between atoms: _66  and  _67
REMARK   21  A    between atoms: _66  and  _69
REMARK   22  A    between atoms: _69  and  _70
REMARK   23  A    between atoms: _75  and  _77
REMARK   24  A    between atoms: _77  and  _78
REMARK   25  A    between atoms: _77  and  _80
REMARK   26  A    between atoms: _80  and  _81
REMARK   27  A    between atoms: _86  and  _88
REMARK   28  A    between atoms: _88  and  _89
REMARK   29  A    between atoms: _88  and  _91
REMARK   30  A    between atoms: _91  and  _92
REMARK   31  A    between atoms: _97  and  _99
REMARK   32  A    between atoms: _99  and  _100
REMARK   33  A    between atoms: _99  and  _102
REMARK   34  A    between atoms: _102  and  _103
REMARK   35  A    between atoms: _106  and  _108
REMARK   36  A    between atoms: _108  and  _109
REMARK   37  A    between atoms: _108  and  _111
REMARK   38  A    between atoms: _111  and  _112
REMARK   39  A    between atoms: _112  and  _113
REMARK   40  A    between atoms: _118  and  _120
REMARK   41  A    between atoms: _120  and  _121
REMARK   42  A    between atoms: _120  and  _123
REMARK   43  A    between atoms: _123  and  _124
REMARK   44  A    between atoms: _130  and  _132
REMARK   45  A    between atoms: _132  and  _133
REMARK   46  A    between atoms: _132  and  _135
REMARK   47  A    between atoms: _135  and  _136
REMARK   48  A    between atoms: _141  and  _143
REMARK   49  A    between atoms: _143  and  _144
REMARK   50  A    between atoms: _143  and  _146
REMARK   51  A    between atoms: _146  and  _147
REMARK   52  A    between atoms: _153  and  _155
REMARK   53  A    between atoms: _155  and  _156
REMARK   54  A    between atoms: _155  and  _158
REMARK   55  A    between atoms: _158  and  _159
REMARK   56  A    between atoms: _163  and  ZN_427
REMARK   57  A    between atoms: _164  and  _166
REMARK   58  A    between atoms: _166  and  _167
REMARK   59  A    between atoms: _166  and  _169
REMARK   60  A    between atoms: _169  and  _170
REMARK   61  A    between atoms: _170  and  _171
REMARK   62  A    between atoms: _174  and  _176
REMARK   63  A    between atoms: _176  and  _177
REMARK   64  A    between atoms: _176  and  _179
REMARK   65  A    between atoms: _179  and  _180
REMARK   66  A    between atoms: _185  and  _187
REMARK   67  A    between atoms: _187  and  _188
REMARK   68  A    between atoms: _187  and  _190
REMARK   69  A    between atoms: _191  and  _192
REMARK   70  A    between atoms: _195  and  _197
REMARK   71  A    between atoms: _197  and  _198
REMARK   72  A    between atoms: _197  and  _200
REMARK   73  A    between atoms: _200  and  _201
REMARK   74  A    between atoms: _204  and  _206
REMARK   75  A    between atoms: _206  and  _207
REMARK   76  A    between atoms: _206  and  _209
REMARK   77  A    between atoms: _209  and  _210
REMARK   78  A    between atoms: _211  and  ZN_427
REMARK   79  A    between atoms: _215  and  _217
REMARK   80  A    between atoms: _217  and  _218
REMARK   81  A    between atoms: _217  and  _220
REMARK   82  A    between atoms: _220  and  _221
REMARK   83  A    between atoms: _224  and  _226
REMARK   84  A    between atoms: _226  and  _227
REMARK   85  A    between atoms: _226  and  _229
REMARK   86  A    between atoms: _232  and  _234
REMARK   87  A    between atoms: _234  and  _235
REMARK   88  A    between atoms: _234  and  _237
REMARK   89  A    between atoms: _237  and  _238
REMARK   90  A    between atoms: _243  and  _245
REMARK   91  A    between atoms: _245  and  _246
REMARK   92  A    between atoms: _245  and  _248
REMARK   93  A    between atoms: _248  and  _249
REMARK   94  A    between atoms: _255  and  _257
REMARK   95  A    between atoms: _257  and  _258
REMARK   96  A    between atoms: _257  and  _260
REMARK   97  A    between atoms: _263  and  _265
REMARK   98  A    between atoms: _265  and  _266
REMARK   99  A    between atoms: _265  and  _268
REMARK  100  A    between atoms: _268  and  _269
REMARK  101  A    between atoms: _272  and  _274
REMARK  102  A    between atoms: _274  and  _275
REMARK  103  A    between atoms: _278  and  _280
REMARK  104  A    between atoms: _280  and  _281
REMARK  105  A    between atoms: _280  and  _283
REMARK  106  A    between atoms: _286  and  _288
REMARK  107  A    between atoms: _288  and  _289
REMARK  108  A    between atoms: _288  and  _291
REMARK  109  A    between atoms: _291  and  _292
REMARK  110  A    between atoms: _295  and  _297
REMARK  111  A    between atoms: _297  and  _298
REMARK  112  A    between atoms: _300  and  _302
REMARK  113  A    between atoms: _302  and  _303
REMARK  114  A    between atoms: _302  and  _305
REMARK  115  A    between atoms: _305  and  _306
REMARK  116  A    between atoms: _308  and  _310
REMARK  117  A    between atoms: _310  and  _311
REMARK  118  A    between atoms: _310  and  _313
REMARK  119  A    between atoms: _313  and  _314
REMARK  120  A    between atoms: _314  and  _315
REMARK  121  A    between atoms: _318  and  _320
REMARK  122  A    between atoms: _320  and  _321
REMARK  123  A    between atoms: _320  and  _323
REMARK  124  A    between atoms: _323  and  _324
REMARK  125  A    between atoms: _327  and  _329
REMARK  126  A    between atoms: _329  and  _330
REMARK  127  A    between atoms: _329  and  _332
REMARK  128  A    between atoms: _332  and  _333
REMARK  129  A    between atoms: _337  and  _338
REMARK  130  A    between atoms: _344  and  _345
REMARK  131  A    between atoms: _350  and  _352
REMARK  132  A    between atoms: _352  and  _353
REMARK  133  A    between atoms: _352  and  _355
REMARK  134  A    between atoms: _355  and  _356
REMARK  135  A    between atoms: _359  and  _361
REMARK  136  A    between atoms: _361  and  _362
REMARK  137  A    between atoms: _361  and  _364
REMARK  138  A    between atoms: _364  and  _365
REMARK  139  A    between atoms: _368  and  _370
REMARK  140  A    between atoms: _370  and  _371
REMARK  141  A    between atoms: _370  and  _373
REMARK  142  A    between atoms: _375  and  _377
REMARK  143  A    between atoms: _377  and  _378
REMARK  144  A    between atoms: _377  and  _380
REMARK  145  A    between atoms: _383  and  _385
REMARK  146  A    between atoms: _385  and  _386
REMARK  147  A    between atoms: _385  and  _388
REMARK  148  A    between atoms: _388  and  _389
REMARK  149  A    between atoms: _399  and  _401
REMARK  150  A    between atoms: _401  and  _402
REMARK  151  A    between atoms: _401  and  _404
REMARK  152  A    between atoms: _404  and  _405
REMARK  153  A    between atoms: _410  and  _412
REMARK  154  A    between atoms: _412  and  _413
REMARK  155  A    between atoms: _412  and  _415
REMARK  156  A    between atoms: _415  and  _416
REMARK  157  A    between atoms: _416  and  _417
REMARK  158  A    between atoms: _417  and  _418
REMARK                            x       y       z     vdW  Elec       q    Type
REMARK                         _______ _______ _______ _____ _____    ______ ____
ROOT
ATOM      1  C   CYS A   1      -5.910   7.558  24.354  0.00  0.00    +0.239 C 
ATOM      2  N   VAL A   2      -6.042   6.247  24.436  0.00  0.00    -0.298 N 
ATOM      3  H   VAL A   2      -5.221   5.685  24.737  0.00  0.00    +0.150 HD
ATOM      4  O   CYS A   1      -6.869   8.319  24.232  0.00  0.00    -0.274 OA
ENDROOT
BRANCH   1   5
ATOM      5  CA  CYS A   1      -4.523   8.141  24.465  0.00  0.00    +0.156 C 
BRANCH   5   6
ATOM      6  N   CYS A   1      -3.445   7.165  24.566  0.00  0.00    -0.237 NA
ATOM      7  H   CYS A   1      -3.447   6.306  23.980  0.00  0.00    +0.142 HD
ENDBRANCH   5   6
BRANCH   5   8
ATOM      8  CB  CYS A   1      -4.206   9.061  23.247  0.00  0.00    +0.095 C 
ATOM      9  SG  CYS A   1      -2.429   9.455  23.241  0.00  0.00    -0.080 S 
ENDBRANCH   5   8
ENDBRANCH   1   5
BRANCH   2  10
ATOM     10  CA  VAL A   2      -7.285   5.549  24.124  0.00  0.00    +0.137 C 
BRANCH  10  11
ATOM     11  CB  VAL A   2      -6.958   4.320  23.140  0.00  0.00    +0.026 C 
ATOM     12  CG2 VAL A   2      -8.232   3.553  22.889  0.00  0.00    +0.002 C 
ATOM     13  CG1 VAL A   2      -6.431   4.740  21.752  0.00  0.00    +0.002 C 
ENDBRANCH  10  11
BRANCH  10  14
ATOM     14  C   VAL A   2      -8.031   5.016  25.377  0.00  0.00    +0.227 C 
ATOM     15  O   VAL A   2      -7.439   4.335  26.227  0.00  0.00    -0.286 OA
ENDBRANCH  10  14
ENDBRANCH   2  10
TORSDOF 6
REMARK  Name = ../refined-set-2016/1yda/1yda_pocket.pdb
REMARK  158 active torsions:
REMARK  status: ('A' for Active; 'I' for Inactive)
REMARK    1  A    between atoms: _1  and  _5
REMARK    2  A    between atoms: _5  and  _6
REMARK    3  A    between atoms: _5  and  _8
REMARK    4  A    between atoms: _8  and  _9
REMARK    5  A    between atoms: _19  and  _21
REMARK    6  A    between atoms: _21  and  _22
REMARK    7  A    between atoms: _21  and  _24
REMARK    8  A    between atoms: _24  and  _25
REMARK    9  A    between atoms: _30  and  _31
REMARK   10  A    between atoms: _33  and  _35
REMARK   11  A    between atoms: _35  and  _36
REMARK   12  A    between atoms: _35  and  _38
REMARK   13  A    between atoms: _38  and  _39
REMARK   14  A    between atoms: _49  and  _51
REMARK   15  A    between atoms: _51  and  _52
REMARK   16  A    between atoms: _51  and  _54
REMARK   17  A    between atoms: _54  and  _55
REMARK   18  A    between atoms: _58  and  _59
REMARK   19  A    between atoms: _64  and  _66
REMARK   20  A    between atoms: _66  and  _67
REMARK   21  A    between atoms: _66  and  _69
REMARK   22  A    between atoms: _69  and  _70
REMARK   23  A    between atoms: _75  and  _77
REMARK   24  A    between atoms: _77  and  _78
REMARK   25  A    between atoms: _77  and  _80
REMARK   26  A    between atoms: _80  and  _81
REMARK   27  A    between atoms: _86  and  _88
REMARK   28  A    between atoms: _88  and  _89
REMARK   29  A    between atoms: _88  and  _91
REMARK   30  A    between atoms: _91  and  _92
REMARK   31  A    between atoms: _97  and  _99
REMARK   32  A    between atoms: _99  and  _100
REMARK   33  A    between atoms: _99  and  _102
REMARK   34  A    between atoms: _102  and  _103
REMARK   35  A    between atoms: _106  and  _108
REMARK   36  A    between atoms: _108  and  _109
REMARK   37  A    between atoms: _108  and  _111
REMARK   38  A    between atoms: _111  and  _112
REMARK   39  A    between atoms: _112  and  _113
REMARK   40  A    between atoms: _118  and  _120
REMARK   41  A    between atoms: _120  and  _121
REMARK   42  A    between atoms: _120  and  _123
REMARK   43  A    between atoms: _123  and  _124
REMARK   44  A    between atoms: _130  and  _132
REMARK   45  A    between atoms: _132  and  _133
REMARK   46  A    between atoms: _132  and  _135
REMARK   47  A    between atoms: _135  and  _136
REMARK   48  A    between atoms: _141  and  _143
REMARK   49  A    between atoms: _143  and  _144
REMARK   50  A    between atoms: _143  and  _146
REMARK   51  A    between atoms: _146  and  _147
REMARK   52  A    between atoms: _153  and  _155
REMARK   53  A    between atoms: _155  and  _156
REMARK   54  A    between atoms: _155  and  _158
REMARK   55  A    between atoms: _158  and  _159
REMARK   56  A    between atoms: _163  and  ZN_427
REMARK   57  A    between atoms: _164  and  _166
REMARK   58  A    between atoms: _166  and  _167
REMARK   59  A    between atoms: _166  and  _169
REMARK   60  A    between atoms: _169  and  _170
REMARK   61  A    between atoms: _170  and  _171
REMARK   62  A    between atoms: _174  and  _176
REMARK   63  A    between atoms: _176  and  _177
REMARK   64  A    between atoms: _176  and  _179
REMARK   65  A    between atoms: _179  and  _180
REMARK   66  A    between atoms: _185  and  _187
REMARK   67  A    between atoms: _187  and  _188
REMARK   68  A    between atoms: _187  and  _190
REMARK   69  A    between atoms: _191  and  _192
REMARK   70  A    between atoms: _195  and  _197
REMARK   71  A    between atoms: _197  and  _198
REMARK   72  A    between atoms: _197  and  _200
REMARK   73  A    between atoms: _200  and  _201
REMARK   74  A    between atoms: _204  and  _206
REMARK   75  A    between atoms: _206  and  _207
REMARK   76  A    between atoms: _206  and  _209
REMARK   77  A    between atoms: _209  and  _210
REMARK   78  A    between atoms: _211  and  ZN_427
REMARK   79  A    between atoms: _215  and  _217
REMARK   80  A    between atoms: _217  and  _218
REMARK   81  A    between atoms: _217  and  _220
REMARK   82  A    between atoms: _220  and  _221
REMARK   83  A    between atoms: _224  and  _226
REMARK   84  A    between atoms: _226  and  _227
REMARK   85  A    between atoms: _226  and  _229
REMARK   86  A    between atoms: _232  and  _234
REMARK   87  A    between atoms: _234  and  _235
REMARK   88  A    between atoms: _234  and  _237
REMARK   89  A    between atoms: _237  and  _238
REMARK   90  A    between atoms: _243  and  _245
REMARK   91  A    between atoms: _245  and  _246
REMARK   92  A    between atoms: _245  and  _248
REMARK   93  A    between atoms: _248  and  _249
REMARK   94  A    between atoms: _255  and  _257
REMARK   95  A    between atoms: _257  and  _258
REMARK   96  A    between atoms: _257  and  _260
REMARK   97  A    between atoms: _263  and  _265
REMARK   98  A    between atoms: _265  and  _266
REMARK   99  A    between atoms: _265  and  _268
REMARK  100  A    between atoms: _268  and  _269
REMARK  101  A    between atoms: _272  and  _274
REMARK  102  A    between atoms: _274  and  _275
REMARK  103  A    between atoms: _278  and  _280
REMARK  104  A    between atoms: _280  and  _281
REMARK  105  A    between atoms: _280  and  _283
REMARK  106  A    between atoms: _286  and  _288
REMARK  107  A    between atoms: _288  and  _289
REMARK  108  A    between atoms: _288  and  _291
REMARK  109  A    between atoms: _291  and  _292
REMARK  110  A    between atoms: _295  and  _297
REMARK  111  A    between atoms: _297  and  _298
REMARK  112  A    between atoms: _300  and  _302
REMARK  113  A    between atoms: _302  and  _303
REMARK  114  A    between atoms: _302  and  _305
REMARK  115  A    between atoms: _305  and  _306
REMARK  116  A    between atoms: _308  and  _310
REMARK  117  A    between atoms: _310  and  _311
REMARK  118  A    between atoms: _310  and  _313
REMARK  119  A    between atoms: _313  and  _314
REMARK  120  A    between atoms: _314  and  _315
REMARK  121  A    between atoms: _318  and  _320
REMARK  122  A    between atoms: _320  and  _321
REMARK  123  A    between atoms: _320  and  _323
REMARK  124  A    between atoms: _323  and  _324
REMARK  125  A    between atoms: _327  and  _329
REMARK  126  A    between atoms: _329  and  _330
REMARK  127  A    between atoms: _329  and  _332
REMARK  128  A    between atoms: _332  and  _333
REMARK  129  A    between atoms: _337  and  _338
REMARK  130  A    between atoms: _344  and  _345
REMARK  131  A    between atoms: _350  and  _352
REMARK  132  A    between atoms: _352  and  _353
REMARK  133  A    between atoms: _352  and  _355
REMARK  134  A    between atoms: _355  and  _356
REMARK  135  A    between atoms: _359  and  _361
REMARK  136  A    between atoms: _361  and  _362
REMARK  137  A    between atoms: _361  and  _364
REMARK  138  A    between atoms: _364  and  _365
REMARK  139  A    between atoms: _368  and  _370
REMARK  140  A    between atoms: _370  and  _371
REMARK  141  A    between atoms: _370  and  _373
REMARK  142  A    between atoms: _375  and  _377
REMARK  143  A    between atoms: _377  and  _378
REMARK  144  A    between atoms: _377  and  _380
REMARK  145  A    between atoms: _383  and  _385
REMARK  146  A    between atoms: _385  and  _386
REMARK  147  A    between atoms: _385  and  _388
REMARK  148  A    between atoms: _388  and  _389
REMARK  149  A    between atoms: _399  and  _401
REMARK  150  A    between atoms: _401  and  _402
REMARK  151  A    between atoms: _401  and  _404
REMARK  152  A    between atoms: _404  and  _405
REMARK  153  A    between atoms: _410  and  _412
REMARK  154  A    between atoms: _412  and  _413
REMARK  155  A    between atoms: _412  and  _415
REMARK  156  A    between atoms: _415  and  _416
REMARK  157  A    between atoms: _416  and  _417
REMARK  158  A    between atoms: _417  and  _418
REMARK                            x       y       z     vdW  Elec       q    Type
REMARK                         _______ _______ _______ _____ _____    ______ ____
ROOT
ATOM      1  CG  TRP A   1      -8.943   0.103  24.199  0.00  0.00    -0.002 A 
ATOM      2  CD1 TRP A   1      -7.732   0.696  24.474  0.00  0.00    +0.068 A 
ATOM      3  NE1 TRP A   1      -7.051   0.538  23.367  0.00  0.00    -0.352 N 
ATOM      4  HE1 TRP A   1      -6.076   0.872  23.226  0.00  0.00    +0.166 HD
ATOM      5  CE2 TRP A   1      -7.782  -0.121  22.422  0.00  0.00    +0.056 A 
ATOM      6  CZ2 TRP A   1      -7.471  -0.512  21.123  0.00  0.00    +0.017 A 
ATOM      7  CH2 TRP A   1      -8.426  -1.187  20.389  0.00  0.00    +0.001 A 
ATOM      8  CZ3 TRP A   1      -9.678  -1.475  20.910  0.00  0.00    +0.000 A 
ATOM      9  CE3 TRP A   1     -10.001  -1.099  22.176  0.00  0.00    +0.001 A 
ATOM     10  CD2 TRP A   1      -9.044  -0.423  22.926  0.00  0.00    +0.013 A 
ENDROOT
BRANCH   1  11
ATOM     11  CB  TRP A   1     -10.041   0.015  25.220  0.00  0.00    +0.053 C 
BRANCH  11  12
ATOM     12  CA  TRP A   1     -10.975   1.190  25.094  0.00  0.00    +0.137 C 
BRANCH  12  13
ATOM     13  N   TRP A   1     -10.515   2.307  25.870  0.00  0.00    -0.239 NA
ATOM     14  H   TRP A   1      -9.963   2.135  26.735  0.00  0.00    +0.142 HD
ENDBRANCH  12  13
BRANCH  12  15
ATOM     15  C   TRP A   1     -12.323   0.740  25.599  0.00  0.00    +0.224 C 
ATOM     16  O   TRP A   1     -12.514   0.833  26.812  0.00  0.00    -0.287 OA
ENDBRANCH  12  15
ENDBRANCH  11  12
ENDBRANCH   1  11
TORSDOF 4
REMARK  Name = ../refined-set-2016/1yda/1yda_pocket.pdb
REMARK  158 active torsions:
REMARK  status: ('A' for Active; 'I' for Inactive)
REMARK    1  A    between atoms: _1  and  _5
REMARK    2  A    between atoms: _5  and  _6
REMARK    3  A    between atoms: _5  and  _8
REMARK    4  A    between atoms: _8  and  _9
REMARK    5  A    between atoms: _19  and  _21
REMARK    6  A    between atoms: _21  and  _22
REMARK    7  A    between atoms: _21  and  _24
REMARK    8  A    between atoms: _24  and  _25
REMARK    9  A    between atoms: _30  and  _31
REMARK   10  A    between atoms: _33  and  _35
REMARK   11  A    between atoms: _35  and  _36
REMARK   12  A    between atoms: _35  and  _38
REMARK   13  A    between atoms: _38  and  _39
REMARK   14  A    between atoms: _49  and  _51
REMARK   15  A    between atoms: _51  and  _52
REMARK   16  A    between atoms: _51  and  _54
REMARK   17  A    between atoms: _54  and  _55
REMARK   18  A    between atoms: _58  and  _59
REMARK   19  A    between atoms: _64  and  _66
REMARK   20  A    between atoms: _66  and  _67
REMARK   21  A    between atoms: _66  and  _69
REMARK   22  A    between atoms: _69  and  _70
REMARK   23  A    between atoms: _75  and  _77
REMARK   24  A    between atoms: _77  and  _78
REMARK   25  A    between atoms: _77  and  _80
REMARK   26  A    between atoms: _80  and  _81
REMARK   27  A    between atoms: _86  and  _88
REMARK   28  A    between atoms: _88  and  _89
REMARK   29  A    between atoms: _88  and  _91
REMARK   30  A    between atoms: _91  and  _92
REMARK   31  A    between atoms: _97  and  _99
REMARK   32  A    between atoms: _99  and  _100
REMARK   33  A    between atoms: _99  and  _102
REMARK   34  A    between atoms: _102  and  _103
REMARK   35  A    between atoms: _106  and  _108
REMARK   36  A    between atoms: _108  and  _109
REMARK   37  A    between atoms: _108  and  _111
REMARK   38  A    between atoms: _111  and  _112
REMARK   39  A    between atoms: _112  and  _113
REMARK   40  A    between atoms: _118  and  _120
REMARK   41  A    between atoms: _120  and  _121
REMARK   42  A    between atoms: _120  and  _123
REMARK   43  A    between atoms: _123  and  _124
REMARK   44  A    between atoms: _130  and  _132
REMARK   45  A    between atoms: _132  and  _133
REMARK   46  A    between atoms: _132  and  _135
REMARK   47  A    between atoms: _135  and  _136
REMARK   48  A    between atoms: _141  and  _143
REMARK   49  A    between atoms: _143  and  _144
REMARK   50  A    between atoms: _143  and  _146
REMARK   51  A    between atoms: _146  and  _147
REMARK   52  A    between atoms: _153  and  _155
REMARK   53  A    between atoms: _155  and  _156
REMARK   54  A    between atoms: _155  and  _158
REMARK   55  A    between atoms: _158  and  _159
REMARK   56  A    between atoms: _163  and  ZN_427
REMARK   57  A    between atoms: _164  and  _166
REMARK   58  A    between atoms: _166  and  _167
REMARK   59  A    between atoms: _166  and  _169
REMARK   60  A    between atoms: _169  and  _170
REMARK   61  A    between atoms: _170  and  _171
REMARK   62  A    between atoms: _174  and  _176
REMARK   63  A    between atoms: _176  and  _177
REMARK   64  A    between atoms: _176  and  _179
REMARK   65  A    between atoms: _179  and  _180
REMARK   66  A    between atoms: _185  and  _187
REMARK   67  A    between atoms: _187  and  _188
REMARK   68  A    between atoms: _187  and  _190
REMARK   69  A    between atoms: _191  and  _192
REMARK   70  A    between atoms: _195  and  _197
REMARK   71  A    between atoms: _197  and  _198
REMARK   72  A    between atoms: _197  and  _200
REMARK   73  A    between atoms: _200  and  _201
REMARK   74  A    between atoms: _204  and  _206
REMARK   75  A    between atoms: _206  and  _207
REMARK   76  A    between atoms: _206  and  _209
REMARK   77  A    between atoms: _209  and  _210
REMARK   78  A    between atoms: _211  and  ZN_427
REMARK   79  A    between atoms: _215  and  _217
REMARK   80  A    between atoms: _217  and  _218
REMARK   81  A    between atoms: _217  and  _220
REMARK   82  A    between atoms: _220  and  _221
REMARK   83  A    between atoms: _224  and  _226
REMARK   84  A    between atoms: _226  and  _227
REMARK   85  A    between atoms: _226  and  _229
REMARK   86  A    between atoms: _232  and  _234
REMARK   87  A    between atoms: _234  and  _235
REMARK   88  A    between atoms: _234  and  _237
REMARK   89  A    between atoms: _237  and  _238
REMARK   90  A    between atoms: _243  and  _245
REMARK   91  A    between atoms: _245  and  _246
REMARK   92  A    between atoms: _245  and  _248
REMARK   93  A    between atoms: _248  and  _249
REMARK   94  A    between atoms: _255  and  _257
REMARK   95  A    between atoms: _257  and  _258
REMARK   96  A    between atoms: _257  and  _260
REMARK   97  A    between atoms: _263  and  _265
REMARK   98  A    between atoms: _265  and  _266
REMARK   99  A    between atoms: _265  and  _268
REMARK  100  A    between atoms: _268  and  _269
REMARK  101  A    between atoms: _272  and  _274
REMARK  102  A    between atoms: _274  and  _275
REMARK  103  A    between atoms: _278  and  _280
REMARK  104  A    between atoms: _280  and  _281
REMARK  105  A    between atoms: _280  and  _283
REMARK  106  A    between atoms: _286  and  _288
REMARK  107  A    between atoms: _288  and  _289
REMARK  108  A    between atoms: _288  and  _291
REMARK  109  A    between atoms: _291  and  _292
REMARK  110  A    between atoms: _295  and  _297
REMARK  111  A    between atoms: _297  and  _298
REMARK  112  A    between atoms: _300  and  _302
REMARK  113  A    between atoms: _302  and  _303
REMARK  114  A    between atoms: _302  and  _305
REMARK  115  A    between atoms: _305  and  _306
REMARK  116  A    between atoms: _308  and  _310
REMARK  117  A    between atoms: _310  and  _311
REMARK  118  A    between atoms: _310  and  _313
REMARK  119  A    between atoms: _313  and  _314
REMARK  120  A    between atoms: _314  and  _315
REMARK  121  A    between atoms: _318  and  _320
REMARK  122  A    between atoms: _320  and  _321
REMARK  123  A    between atoms: _320  and  _323
REMARK  124  A    between atoms: _323  and  _324
REMARK  125  A    between atoms: _327  and  _329
REMARK  126  A    between atoms: _329  and  _330
REMARK  127  A    between atoms: _329  and  _332
REMARK  128  A    between atoms: _332  and  _333
REMARK  129  A    between atoms: _337  and  _338
REMARK  130  A    between atoms: _344  and  _345
REMARK  131  A    between atoms: _350  and  _352
REMARK  132  A    between atoms: _352  and  _353
REMARK  133  A    between atoms: _352  and  _355
REMARK  134  A    between atoms: _355  and  _356
REMARK  135  A    between atoms: _359  and  _361
REMARK  136  A    between atoms: _361  and  _362
REMARK  137  A    between atoms: _361  and  _364
REMARK  138  A    between atoms: _364  and  _365
REMARK  139  A    between atoms: _368  and  _370
REMARK  140  A    between atoms: _370  and  _371
REMARK  141  A    between atoms: _370  and  _373
REMARK  142  A    between atoms: _375  and  _377
REMARK  143  A    between atoms: _377  and  _378
REMARK  144  A    between atoms: _377  and  _380
REMARK  145  A    between atoms: _383  and  _385
REMARK  146  A    between atoms: _385  and  _386
REMARK  147  A    between atoms: _385  and  _388
REMARK  148  A    between atoms: _388  and  _389
REMARK  149  A    between atoms: _399  and  _401
REMARK  150  A    between atoms: _401  and  _402
REMARK  151  A    between atoms: _401  and  _404
REMARK  152  A    between atoms: _404  and  _405
REMARK  153  A    between atoms: _410  and  _412
REMARK  154  A    between atoms: _412  and  _413
REMARK  155  A    between atoms: _412  and  _415
REMARK  156  A    between atoms: _415  and  _416
REMARK  157  A    between atoms: _416  and  _417
REMARK  158  A    between atoms: _417  and  _418
REMARK                            x       y       z     vdW  Elec       q    Type
REMARK                         _______ _______ _______ _____ _____    ______ ____
ROOT
ATOM      1  CB  ASN A   1      -1.933  -7.280  10.530  0.00  0.00    +0.110 C 
ENDROOT
BRANCH   1   2
ATOM      2  CG  ASN A   1      -3.443  -7.267  10.363  0.00  0.00    +0.221 C 
ATOM      3  OD1 ASN A   1      -4.175  -8.122  10.892  0.00  0.00    -0.275 OA
ATOM      4  ND2 ASN A   1      -3.962  -6.296   9.650  0.00  0.00    -0.329 N 
ATOM      5 HD21 ASN A   1      -4.993  -6.237   9.524  0.00  0.00    +0.145 HD
ATOM      6 HD22 ASN A   1      -3.343  -5.585   9.211  0.00  0.00    +0.145 HD
ENDBRANCH   1   2
BRANCH   1   7
ATOM      7  CA  ASN A   1      -1.441  -8.142  11.706  0.00  0.00    +0.142 C 
BRANCH   7   8
ATOM      8  N   ASN A   1      -1.935  -9.493  11.526  0.00  0.00    -0.239 NA
ATOM      9  H   ASN A   1      -2.919  -9.663  11.236  0.00  0.00    +0.142 HD
ENDBRANCH   7   8
BRANCH   7  10
ATOM     10  C   ASN A   1      -1.925  -7.616  13.068  0.00  0.00    +0.225 C 
ATOM     11  O   ASN A   1      -2.467  -6.524  13.257  0.00  0.00    -0.287 OA
ENDBRANCH   7  10
ENDBRANCH   1   7
TORSDOF 4
REMARK  Name = ../refined-set-2016/1yda/1yda_pocket.pdb
REMARK  158 active torsions:
REMARK  status: ('A' for Active; 'I' for Inactive)
REMARK    1  A    between atoms: _1  and  _5
REMARK    2  A    between atoms: _5  and  _6
REMARK    3  A    between atoms: _5  and  _8
REMARK    4  A    between atoms: _8  and  _9
REMARK    5  A    between atoms: _19  and  _21
REMARK    6  A    between atoms: _21  and  _22
REMARK    7  A    between atoms: _21  and  _24
REMARK    8  A    between atoms: _24  and  _25
REMARK    9  A    between atoms: _30  and  _31
REMARK   10  A    between atoms: _33  and  _35
REMARK   11  A    between atoms: _35  and  _36
REMARK   12  A    between atoms: _35  and  _38
REMARK   13  A    between atoms: _38  and  _39
REMARK   14  A    between atoms: _49  and  _51
REMARK   15  A    between atoms: _51  and  _52
REMARK   16  A    between atoms: _51  and  _54
REMARK   17  A    between atoms: _54  and  _55
REMARK   18  A    between atoms: _58  and  _59
REMARK   19  A    between atoms: _64  and  _66
REMARK   20  A    between atoms: _66  and  _67
REMARK   21  A    between atoms: _66  and  _69
REMARK   22  A    between atoms: _69  and  _70
REMARK   23  A    between atoms: _75  and  _77
REMARK   24  A    between atoms: _77  and  _78
REMARK   25  A    between atoms: _77  and  _80
REMARK   26  A    between atoms: _80  and  _81
REMARK   27  A    between atoms: _86  and  _88
REMARK   28  A    between atoms: _88  and  _89
REMARK   29  A    between atoms: _88  and  _91
REMARK   30  A    between atoms: _91  and  _92
REMARK   31  A    between atoms: _97  and  _99
REMARK   32  A    between atoms: _99  and  _100
REMARK   33  A    between atoms: _99  and  _102
REMARK   34  A    between atoms: _102  and  _103
REMARK   35  A    between atoms: _106  and  _108
REMARK   36  A    between atoms: _108  and  _109
REMARK   37  A    between atoms: _108  and  _111
REMARK   38  A    between atoms: _111  and  _112
REMARK   39  A    between atoms: _112  and  _113
REMARK   40  A    between atoms: _118  and  _120
REMARK   41  A    between atoms: _120  and  _121
REMARK   42  A    between atoms: _120  and  _123
REMARK   43  A    between atoms: _123  and  _124
REMARK   44  A    between atoms: _130  and  _132
REMARK   45  A    between atoms: _132  and  _133
REMARK   46  A    between atoms: _132  and  _135
REMARK   47  A    between atoms: _135  and  _136
REMARK   48  A    between atoms: _141  and  _143
REMARK   49  A    between atoms: _143  and  _144
REMARK   50  A    between atoms: _143  and  _146
REMARK   51  A    between atoms: _146  and  _147
REMARK   52  A    between atoms: _153  and  _155
REMARK   53  A    between atoms: _155  and  _156
REMARK   54  A    between atoms: _155  and  _158
REMARK   55  A    between atoms: _158  and  _159
REMARK   56  A    between atoms: _163  and  ZN_427
REMARK   57  A    between atoms: _164  and  _166
REMARK   58  A    between atoms: _166  and  _167
REMARK   59  A    between atoms: _166  and  _169
REMARK   60  A    between atoms: _169  and  _170
REMARK   61  A    between atoms: _170  and  _171
REMARK   62  A    between atoms: _174  and  _176
REMARK   63  A    between atoms: _176  and  _177
REMARK   64  A    between atoms: _176  and  _179
REMARK   65  A    between atoms: _179  and  _180
REMARK   66  A    between atoms: _185  and  _187
REMARK   67  A    between atoms: _187  and  _188
REMARK   68  A    between atoms: _187  and  _190
REMARK   69  A    between atoms: _191  and  _192
REMARK   70  A    between atoms: _195  and  _197
REMARK   71  A    between atoms: _197  and  _198
REMARK   72  A    between atoms: _197  and  _200
REMARK   73  A    between atoms: _200  and  _201
REMARK   74  A    between atoms: _204  and  _206
REMARK   75  A    between atoms: _206  and  _207
REMARK   76  A    between atoms: _206  and  _209
REMARK   77  A    between atoms: _209  and  _210
REMARK   78  A    between atoms: _211  and  ZN_427
REMARK   79  A    between atoms: _215  and  _217
REMARK   80  A    between atoms: _217  and  _218
REMARK   81  A    between atoms: _217  and  _220
REMARK   82  A    between atoms: _220  and  _221
REMARK   83  A    between atoms: _224  and  _226
REMARK   84  A    between atoms: _226  and  _227
REMARK   85  A    between atoms: _226  and  _229
REMARK   86  A    between atoms: _232  and  _234
REMARK   87  A    between atoms: _234  and  _235
REMARK   88  A    between atoms: _234  and  _237
REMARK   89  A    between atoms: _237  and  _238
REMARK   90  A    between atoms: _243  and  _245
REMARK   91  A    between atoms: _245  and  _246
REMARK   92  A    between atoms: _245  and  _248
REMARK   93  A    between atoms: _248  and  _249
REMARK   94  A    between atoms: _255  and  _257
REMARK   95  A    between atoms: _257  and  _258
REMARK   96  A    between atoms: _257  and  _260
REMARK   97  A    between atoms: _263  and  _265
REMARK   98  A    between atoms: _265  and  _266
REMARK   99  A    between atoms: _265  and  _268
REMARK  100  A    between atoms: _268  and  _269
REMARK  101  A    between atoms: _272  and  _274
REMARK  102  A    between atoms: _274  and  _275
REMARK  103  A    between atoms: _278  and  _280
REMARK  104  A    between atoms: _280  and  _281
REMARK  105  A    between atoms: _280  and  _283
REMARK  106  A    between atoms: _286  and  _288
REMARK  107  A    between atoms: _288  and  _289
REMARK  108  A    between atoms: _288  and  _291
REMARK  109  A    between atoms: _291  and  _292
REMARK  110  A    between atoms: _295  and  _297
REMARK  111  A    between atoms: _297  and  _298
REMARK  112  A    between atoms: _300  and  _302
REMARK  113  A    between atoms: _302  and  _303
REMARK  114  A    between atoms: _302  and  _305
REMARK  115  A    between atoms: _305  and  _306
REMARK  116  A    between atoms: _308  and  _310
REMARK  117  A    between atoms: _310  and  _311
REMARK  118  A    between atoms: _310  and  _313
REMARK  119  A    between atoms: _313  and  _314
REMARK  120  A    between atoms: _314  and  _315
REMARK  121  A    between atoms: _318  and  _320
REMARK  122  A    between atoms: _320  and  _321
REMARK  123  A    between atoms: _320  and  _323
REMARK  124  A    between atoms: _323  and  _324
REMARK  125  A    between atoms: _327  and  _329
REMARK  126  A    between atoms: _329  and  _330
REMARK  127  A    between atoms: _329  and  _332
REMARK  128  A    between atoms: _332  and  _333
REMARK  129  A    between atoms: _337  and  _338
REMARK  130  A    between atoms: _344  and  _345
REMARK  131  A    between atoms: _350  and  _352
REMARK  132  A    between atoms: _352  and  _353
REMARK  133  A    between atoms: _352  and  _355
REMARK  134  A    between atoms: _355  and  _356
REMARK  135  A    between atoms: _359  and  _361
REMARK  136  A    between atoms: _361  and  _362
REMARK  137  A    between atoms: _361  and  _364
REMARK  138  A    between atoms: _364  and  _365
REMARK  139  A    between atoms: _368  and  _370
REMARK  140  A    between atoms: _370  and  _371
REMARK  141  A    between atoms: _370  and  _373
REMARK  142  A    between atoms: _375  and  _377
REMARK  143  A    between atoms: _377  and  _378
REMARK  144  A    between atoms: _377  and  _380
REMARK  145  A    between atoms: _383  and  _385
REMARK  146  A    between atoms: _385  and  _386
REMARK  147  A    between atoms: _385  and  _388
REMARK  148  A    between atoms: _388  and  _389
REMARK  149  A    between atoms: _399  and  _401
REMARK  150  A    between atoms: _401  and  _402
REMARK  151  A    between atoms: _401  and  _404
REMARK  152  A    between atoms: _404  and  _405
REMARK  153  A    between atoms: _410  and  _412
REMARK  154  A    between atoms: _412  and  _413
REMARK  155  A    between atoms: _412  and  _415
REMARK  156  A    between atoms: _415  and  _416
REMARK  157  A    between atoms: _416  and  _417
REMARK  158  A    between atoms: _417  and  _418
REMARK                            x       y       z     vdW  Elec       q    Type
REMARK                         _______ _______ _______ _____ _____    ______ ____
ROOT
ATOM      1  NE  ARG A   1       2.139  -3.628  21.414  0.00  0.00    +0.330 N 
ATOM      2  CZ  ARG A   1       2.252  -2.543  22.166  0.00  0.00    +0.000 C 
ATOM      3  NH2 ARG A   1       3.466  -2.230  22.613  0.00  0.00    +0.330 N 
ATOM      4 HH21 ARG A   1       3.600  -1.387  23.207  0.00  0.00    +0.000 HD
ATOM      5 HH22 ARG A   1       4.280  -2.829  22.369  0.00  0.00    +0.000 HD
ATOM      6  NH1 ARG A   1       1.257  -1.672  22.320  0.00  0.00    +0.330 N 
ATOM      7 HH11 ARG A   1       1.389  -0.833  22.920  0.00  0.00    +0.000 HD
ATOM      8 HH12 ARG A   1       0.348  -1.831  21.840  0.00  0.00    +0.000 HD
ATOM      9  HE  ARG A   1       2.945  -4.283  21.368  0.00  0.00    +0.000 HD
ENDROOT
BRANCH   1  10
ATOM     10  CD  ARG A   1       0.938  -3.950  20.646  0.00  0.00    +0.000 C 
BRANCH  10  11
ATOM     11  CG  ARG A   1       1.105  -5.172  19.809  0.00  0.00    +0.000 C 
BRANCH  11  12
ATOM     12  CB  ARG A   1      -0.152  -5.459  19.038  0.00  0.00    +0.000 C 
BRANCH  12  13
ATOM     13  CA  ARG A   1      -0.094  -6.908  18.512  0.00  0.00    +0.000 C 
BRANCH  13  14
ATOM     14  N   ARG A   1      -1.075  -7.147  17.429  0.00  0.00    +0.000 NA
ATOM     15  H   ARG A   1      -1.957  -6.597  17.461  0.00  0.00    +0.000 HD
ENDBRANCH  13  14
BRANCH  13  16
ATOM     16  C   ARG A   1      -0.484  -7.859  19.666  0.00  0.00    +0.000 C 
ATOM     17  O   ARG A   1      -1.652  -7.946  20.093  0.00  0.00    +0.000 OA
ENDBRANCH  13  16
ENDBRANCH  12  13
ENDBRANCH  11  12
ENDBRANCH  10  11
ENDBRANCH   1  10
TORSDOF 6
REMARK  Name = ../refined-set-2016/1yda/1yda_pocket.pdb
REMARK  158 active torsions:
REMARK  status: ('A' for Active; 'I' for Inactive)
REMARK    1  A    between atoms: _1  and  _5
REMARK    2  A    between atoms: _5  and  _6
REMARK    3  A    between atoms: _5  and  _8
REMARK    4  A    between atoms: _8  and  _9
REMARK    5  A    between atoms: _19  and  _21
REMARK    6  A    between atoms: _21  and  _22
REMARK    7  A    between atoms: _21  and  _24
REMARK    8  A    between atoms: _24  and  _25
REMARK    9  A    between atoms: _30  and  _31
REMARK   10  A    between atoms: _33  and  _35
REMARK   11  A    between atoms: _35  and  _36
REMARK   12  A    between atoms: _35  and  _38
REMARK   13  A    between atoms: _38  and  _39
REMARK   14  A    between atoms: _49  and  _51
REMARK   15  A    between atoms: _51  and  _52
REMARK   16  A    between atoms: _51  and  _54
REMARK   17  A    between atoms: _54  and  _55
REMARK   18  A    between atoms: _58  and  _59
REMARK   19  A    between atoms: _64  and  _66
REMARK   20  A    between atoms: _66  and  _67
REMARK   21  A    between atoms: _66  and  _69
REMARK   22  A    between atoms: _69  and  _70
REMARK   23  A    between atoms: _75  and  _77
REMARK   24  A    between atoms: _77  and  _78
REMARK   25  A    between atoms: _77  and  _80
REMARK   26  A    between atoms: _80  and  _81
REMARK   27  A    between atoms: _86  and  _88
REMARK   28  A    between atoms: _88  and  _89
REMARK   29  A    between atoms: _88  and  _91
REMARK   30  A    between atoms: _91  and  _92
REMARK   31  A    between atoms: _97  and  _99
REMARK   32  A    between atoms: _99  and  _100
REMARK   33  A    between atoms: _99  and  _102
REMARK   34  A    between atoms: _102  and  _103
REMARK   35  A    between atoms: _106  and  _108
REMARK   36  A    between atoms: _108  and  _109
REMARK   37  A    between atoms: _108  and  _111
REMARK   38  A    between atoms: _111  and  _112
REMARK   39  A    between atoms: _112  and  _113
REMARK   40  A    between atoms: _118  and  _120
REMARK   41  A    between atoms: _120  and  _121
REMARK   42  A    between atoms: _120  and  _123
REMARK   43  A    between atoms: _123  and  _124
REMARK   44  A    between atoms: _130  and  _132
REMARK   45  A    between atoms: _132  and  _133
REMARK   46  A    between atoms: _132  and  _135
REMARK   47  A    between atoms: _135  and  _136
REMARK   48  A    between atoms: _141  and  _143
REMARK   49  A    between atoms: _143  and  _144
REMARK   50  A    between atoms: _143  and  _146
REMARK   51  A    between atoms: _146  and  _147
REMARK   52  A    between atoms: _153  and  _155
REMARK   53  A    between atoms: _155  and  _156
REMARK   54  A    between atoms: _155  and  _158
REMARK   55  A    between atoms: _158  and  _159
REMARK   56  A    between atoms: _163  and  ZN_427
REMARK   57  A    between atoms: _164  and  _166
REMARK   58  A    between atoms: _166  and  _167
REMARK   59  A    between atoms: _166  and  _169
REMARK   60  A    between atoms: _169  and  _170
REMARK   61  A    between atoms: _170  and  _171
REMARK   62  A    between atoms: _174  and  _176
REMARK   63  A    between atoms: _176  and  _177
REMARK   64  A    between atoms: _176  and  _179
REMARK   65  A    between atoms: _179  and  _180
REMARK   66  A    between atoms: _185  and  _187
REMARK   67  A    between atoms: _187  and  _188
REMARK   68  A    between atoms: _187  and  _190
REMARK   69  A    between atoms: _191  and  _192
REMARK   70  A    between atoms: _195  and  _197
REMARK   71  A    between atoms: _197  and  _198
REMARK   72  A    between atoms: _197  and  _200
REMARK   73  A    between atoms: _200  and  _201
REMARK   74  A    between atoms: _204  and  _206
REMARK   75  A    between atoms: _206  and  _207
REMARK   76  A    between atoms: _206  and  _209
REMARK   77  A    between atoms: _209  and  _210
REMARK   78  A    between atoms: _211  and  ZN_427
REMARK   79  A    between atoms: _215  and  _217
REMARK   80  A    between atoms: _217  and  _218
REMARK   81  A    between atoms: _217  and  _220
REMARK   82  A    between atoms: _220  and  _221
REMARK   83  A    between atoms: _224  and  _226
REMARK   84  A    between atoms: _226  and  _227
REMARK   85  A    between atoms: _226  and  _229
REMARK   86  A    between atoms: _232  and  _234
REMARK   87  A    between atoms: _234  and  _235
REMARK   88  A    between atoms: _234  and  _237
REMARK   89  A    between atoms: _237  and  _238
REMARK   90  A    between atoms: _243  and  _245
REMARK   91  A    between atoms: _245  and  _246
REMARK   92  A    between atoms: _245  and  _248
REMARK   93  A    between atoms: _248  and  _249
REMARK   94  A    between atoms: _255  and  _257
REMARK   95  A    between atoms: _257  and  _258
REMARK   96  A    between atoms: _257  and  _260
REMARK   97  A    between atoms: _263  and  _265
REMARK   98  A    between atoms: _265  and  _266
REMARK   99  A    between atoms: _265  and  _268
REMARK  100  A    between atoms: _268  and  _269
REMARK  101  A    between atoms: _272  and  _274
REMARK  102  A    between atoms: _274  and  _275
REMARK  103  A    between atoms: _278  and  _280
REMARK  104  A    between atoms: _280  and  _281
REMARK  105  A    between atoms: _280  and  _283
REMARK  106  A    between atoms: _286  and  _288
REMARK  107  A    between atoms: _288  and  _289
REMARK  108  A    between atoms: _288  and  _291
REMARK  109  A    between atoms: _291  and  _292
REMARK  110  A    between atoms: _295  and  _297
REMARK  111  A    between atoms: _297  and  _298
REMARK  112  A    between atoms: _300  and  _302
REMARK  113  A    between atoms: _302  and  _303
REMARK  114  A    between atoms: _302  and  _305
REMARK  115  A    between atoms: _305  and  _306
REMARK  116  A    between atoms: _308  and  _310
REMARK  117  A    between atoms: _310  and  _311
REMARK  118  A    between atoms: _310  and  _313
REMARK  119  A    between atoms: _313  and  _314
REMARK  120  A    between atoms: _314  and  _315
REMARK  121  A    between atoms: _318  and  _320
REMARK  122  A    between atoms: _320  and  _321
REMARK  123  A    between atoms: _320  and  _323
REMARK  124  A    between atoms: _323  and  _324
REMARK  125  A    between atoms: _327  and  _329
REMARK  126  A    between atoms: _329  and  _330
REMARK  127  A    between atoms: _329  and  _332
REMARK  128  A    between atoms: _332  and  _333
REMARK  129  A    between atoms: _337  and  _338
REMARK  130  A    between atoms: _344  and  _345
REMARK  131  A    between atoms: _350  and  _352
REMARK  132  A    between atoms: _352  and  _353
REMARK  133  A    between atoms: _352  and  _355
REMARK  134  A    between atoms: _355  and  _356
REMARK  135  A    between atoms: _359  and  _361
REMARK  136  A    between atoms: _361  and  _362
REMARK  137  A    between atoms: _361  and  _364
REMARK  138  A    between atoms: _364  and  _365
REMARK  139  A    between atoms: _368  and  _370
REMARK  140  A    between atoms: _370  and  _371
REMARK  141  A    between atoms: _370  and  _373
REMARK  142  A    between atoms: _375  and  _377
REMARK  143  A    between atoms: _377  and  _378
REMARK  144  A    between atoms: _377  and  _380
REMARK  145  A    between atoms: _383  and  _385
REMARK  146  A    between atoms: _385  and  _386
REMARK  147  A    between atoms: _385  and  _388
REMARK  148  A    between atoms: _388  and  _389
REMARK  149  A    between atoms: _399  and  _401
REMARK  150  A    between atoms: _401  and  _402
REMARK  151  A    between atoms: _401  and  _404
REMARK  152  A    between atoms: _404  and  _405
REMARK  153  A    between atoms: _410  and  _412
REMARK  154  A    between atoms: _412  and  _413
REMARK  155  A    between atoms: _412  and  _415
REMARK  156  A    between atoms: _415  and  _416
REMARK  157  A    between atoms: _416  and  _417
REMARK  158  A    between atoms: _417  and  _418
REMARK                            x       y       z     vdW  Elec       q    Type
REMARK                         _______ _______ _______ _____ _____    ______ ____
ROOT
ATOM      1  O   HOH     1      -6.974   6.050   6.789  0.00  0.00    +0.000 OA
ENDROOT
TORSDOF 0
REMARK  Name = ../refined-set-2016/1yda/1yda_pocket.pdb
REMARK  158 active torsions:
REMARK  status: ('A' for Active; 'I' for Inactive)
REMARK    1  A    between atoms: _1  and  _5
REMARK    2  A    between atoms: _5  and  _6
REMARK    3  A    between atoms: _5  and  _8
REMARK    4  A    between atoms: _8  and  _9
REMARK    5  A    between atoms: _19  and  _21
REMARK    6  A    between atoms: _21  and  _22
REMARK    7  A    between atoms: _21  and  _24
REMARK    8  A    between atoms: _24  and  _25
REMARK    9  A    between atoms: _30  and  _31
REMARK   10  A    between atoms: _33  and  _35
REMARK   11  A    between atoms: _35  and  _36
REMARK   12  A    between atoms: _35  and  _38
REMARK   13  A    between atoms: _38  and  _39
REMARK   14  A    between atoms: _49  and  _51
REMARK   15  A    between atoms: _51  and  _52
REMARK   16  A    between atoms: _51  and  _54
REMARK   17  A    between atoms: _54  and  _55
REMARK   18  A    between atoms: _58  and  _59
REMARK   19  A    between atoms: _64  and  _66
REMARK   20  A    between atoms: _66  and  _67
REMARK   21  A    between atoms: _66  and  _69
REMARK   22  A    between atoms: _69  and  _70
REMARK   23  A    between atoms: _75  and  _77
REMARK   24  A    between atoms: _77  and  _78
REMARK   25  A    between atoms: _77  and  _80
REMARK   26  A    between atoms: _80  and  _81
REMARK   27  A    between atoms: _86  and  _88
REMARK   28  A    between atoms: _88  and  _89
REMARK   29  A    between atoms: _88  and  _91
REMARK   30  A    between atoms: _91  and  _92
REMARK   31  A    between atoms: _97  and  _99
REMARK   32  A    between atoms: _99  and  _100
REMARK   33  A    between atoms: _99  and  _102
REMARK   34  A    between atoms: _102  and  _103
REMARK   35  A    between atoms: _106  and  _108
REMARK   36  A    between atoms: _108  and  _109
REMARK   37  A    between atoms: _108  and  _111
REMARK   38  A    between atoms: _111  and  _112
REMARK   39  A    between atoms: _112  and  _113
REMARK   40  A    between atoms: _118  and  _120
REMARK   41  A    between atoms: _120  and  _121
REMARK   42  A    between atoms: _120  and  _123
REMARK   43  A    between atoms: _123  and  _124
REMARK   44  A    between atoms: _130  and  _132
REMARK   45  A    between atoms: _132  and  _133
REMARK   46  A    between atoms: _132  and  _135
REMARK   47  A    between atoms: _135  and  _136
REMARK   48  A    between atoms: _141  and  _143
REMARK   49  A    between atoms: _143  and  _144
REMARK   50  A    between atoms: _143  and  _146
REMARK   51  A    between atoms: _146  and  _147
REMARK   52  A    between atoms: _153  and  _155
REMARK   53  A    between atoms: _155  and  _156
REMARK   54  A    between atoms: _155  and  _158
REMARK   55  A    between atoms: _158  and  _159
REMARK   56  A    between atoms: _163  and  ZN_427
REMARK   57  A    between atoms: _164  and  _166
REMARK   58  A    between atoms: _166  and  _167
REMARK   59  A    between atoms: _166  and  _169
REMARK   60  A    between atoms: _169  and  _170
REMARK   61  A    between atoms: _170  and  _171
REMARK   62  A    between atoms: _174  and  _176
REMARK   63  A    between atoms: _176  and  _177
REMARK   64  A    between atoms: _176  and  _179
REMARK   65  A    between atoms: _179  and  _180
REMARK   66  A    between atoms: _185  and  _187
REMARK   67  A    between atoms: _187  and  _188
REMARK   68  A    between atoms: _187  and  _190
REMARK   69  A    between atoms: _191  and  _192
REMARK   70  A    between atoms: _195  and  _197
REMARK   71  A    between atoms: _197  and  _198
REMARK   72  A    between atoms: _197  and  _200
REMARK   73  A    between atoms: _200  and  _201
REMARK   74  A    between atoms: _204  and  _206
REMARK   75  A    between atoms: _206  and  _207
REMARK   76  A    between atoms: _206  and  _209
REMARK   77  A    between atoms: _209  and  _210
REMARK   78  A    between atoms: _211  and  ZN_427
REMARK   79  A    between atoms: _215  and  _217
REMARK   80  A    between atoms: _217  and  _218
REMARK   81  A    between atoms: _217  and  _220
REMARK   82  A    between atoms: _220  and  _221
REMARK   83  A    between atoms: _224  and  _226
REMARK   84  A    between atoms: _226  and  _227
REMARK   85  A    between atoms: _226  and  _229
REMARK   86  A    between atoms: _232  and  _234
REMARK   87  A    between atoms: _234  and  _235
REMARK   88  A    between atoms: _234  and  _237
REMARK   89  A    between atoms: _237  and  _238
REMARK   90  A    between atoms: _243  and  _245
REMARK   91  A    between atoms: _245  and  _246
REMARK   92  A    between atoms: _245  and  _248
REMARK   93  A    between atoms: _248  and  _249
REMARK   94  A    between atoms: _255  and  _257
REMARK   95  A    between atoms: _257  and  _258
REMARK   96  A    between atoms: _257  and  _260
REMARK   97  A    between atoms: _263  and  _265
REMARK   98  A    between atoms: _265  and  _266
REMARK   99  A    between atoms: _265  and  _268
REMARK  100  A    between atoms: _268  and  _269
REMARK  101  A    between atoms: _272  and  _274
REMARK  102  A    between atoms: _274  and  _275
REMARK  103  A    between atoms: _278  and  _280
REMARK  104  A    between atoms: _280  and  _281
REMARK  105  A    between atoms: _280  and  _283
REMARK  106  A    between atoms: _286  and  _288
REMARK  107  A    between atoms: _288  and  _289
REMARK  108  A    between atoms: _288  and  _291
REMARK  109  A    between atoms: _291  and  _292
REMARK  110  A    between atoms: _295  and  _297
REMARK  111  A    between atoms: _297  and  _298
REMARK  112  A    between atoms: _300  and  _302
REMARK  113  A    between atoms: _302  and  _303
REMARK  114  A    between atoms: _302  and  _305
REMARK  115  A    between atoms: _305  and  _306
REMARK  116  A    between atoms: _308  and  _310
REMARK  117  A    between atoms: _310  and  _311
REMARK  118  A    between atoms: _310  and  _313
REMARK  119  A    between atoms: _313  and  _314
REMARK  120  A    between atoms: _314  and  _315
REMARK  121  A    between atoms: _318  and  _320
REMARK  122  A    between atoms: _320  and  _321
REMARK  123  A    between atoms: _320  and  _323
REMARK  124  A    between atoms: _323  and  _324
REMARK  125  A    between atoms: _327  and  _329
REMARK  126  A    between atoms: _329  and  _330
REMARK  127  A    between atoms: _329  and  _332
REMARK  128  A    between atoms: _332  and  _333
REMARK  129  A    between atoms: _337  and  _338
REMARK  130  A    between atoms: _344  and  _345
REMARK  131  A    between atoms: _350  and  _352
REMARK  132  A    between atoms: _352  and  _353
REMARK  133  A    between atoms: _352  and  _355
REMARK  134  A    between atoms: _355  and  _356
REMARK  135  A    between atoms: _359  and  _361
REMARK  136  A    between atoms: _361  and  _362
REMARK  137  A    between atoms: _361  and  _364
REMARK  138  A    between atoms: _364  and  _365
REMARK  139  A    between atoms: _368  and  _370
REMARK  140  A    between atoms: _370  and  _371
REMARK  141  A    between atoms: _370  and  _373
REMARK  142  A    between atoms: _375  and  _377
REMARK  143  A    between atoms: _377  and  _378
REMARK  144  A    between atoms: _377  and  _380
REMARK  145  A    between atoms: _383  and  _385
REMARK  146  A    between atoms: _385  and  _386
REMARK  147  A    between atoms: _385  and  _388
REMARK  148  A    between atoms: _388  and  _389
REMARK  149  A    between atoms: _399  and  _401
REMARK  150  A    between atoms: _401  and  _402
REMARK  151  A    between atoms: _401  and  _404
REMARK  152  A    between atoms: _404  and  _405
REMARK  153  A    between atoms: _410  and  _412
REMARK  154  A    between atoms: _412  and  _413
REMARK  155  A    between atoms: _412  and  _415
REMARK  156  A    between atoms: _415  and  _416
REMARK  157  A    between atoms: _416  and  _417
REMARK  158  A    between atoms: _417  and  _418
REMARK                            x       y       z     vdW  Elec       q    Type
REMARK                         _______ _______ _______ _____ _____    ______ ____
ROOT
ATOM      1  O   HOH     1      -1.676   8.770  15.687  0.00  0.00    +0.000 OA
ENDROOT
TORSDOF 0
REMARK  Name = ../refined-set-2016/1yda/1yda_pocket.pdb
REMARK  158 active torsions:
REMARK  status: ('A' for Active; 'I' for Inactive)
REMARK    1  A    between atoms: _1  and  _5
REMARK    2  A    between atoms: _5  and  _6
REMARK    3  A    between atoms: _5  and  _8
REMARK    4  A    between atoms: _8  and  _9
REMARK    5  A    between atoms: _19  and  _21
REMARK    6  A    between atoms: _21  and  _22
REMARK    7  A    between atoms: _21  and  _24
REMARK    8  A    between atoms: _24  and  _25
REMARK    9  A    between atoms: _30  and  _31
REMARK   10  A    between atoms: _33  and  _35
REMARK   11  A    between atoms: _35  and  _36
REMARK   12  A    between atoms: _35  and  _38
REMARK   13  A    between atoms: _38  and  _39
REMARK   14  A    between atoms: _49  and  _51
REMARK   15  A    between atoms: _51  and  _52
REMARK   16  A    between atoms: _51  and  _54
REMARK   17  A    between atoms: _54  and  _55
REMARK   18  A    between atoms: _58  and  _59
REMARK   19  A    between atoms: _64  and  _66
REMARK   20  A    between atoms: _66  and  _67
REMARK   21  A    between atoms: _66  and  _69
REMARK   22  A    between atoms: _69  and  _70
REMARK   23  A    between atoms: _75  and  _77
REMARK   24  A    between atoms: _77  and  _78
REMARK   25  A    between atoms: _77  and  _80
REMARK   26  A    between atoms: _80  and  _81
REMARK   27  A    between atoms: _86  and  _88
REMARK   28  A    between atoms: _88  and  _89
REMARK   29  A    between atoms: _88  and  _91
REMARK   30  A    between atoms: _91  and  _92
REMARK   31  A    between atoms: _97  and  _99
REMARK   32  A    between atoms: _99  and  _100
REMARK   33  A    between atoms: _99  and  _102
REMARK   34  A    between atoms: _102  and  _103
REMARK   35  A    between atoms: _106  and  _108
REMARK   36  A    between atoms: _108  and  _109
REMARK   37  A    between atoms: _108  and  _111
REMARK   38  A    between atoms: _111  and  _112
REMARK   39  A    between atoms: _112  and  _113
REMARK   40  A    between atoms: _118  and  _120
REMARK   41  A    between atoms: _120  and  _121
REMARK   42  A    between atoms: _120  and  _123
REMARK   43  A    between atoms: _123  and  _124
REMARK   44  A    between atoms: _130  and  _132
REMARK   45  A    between atoms: _132  and  _133
REMARK   46  A    between atoms: _132  and  _135
REMARK   47  A    between atoms: _135  and  _136
REMARK   48  A    between atoms: _141  and  _143
REMARK   49  A    between atoms: _143  and  _144
REMARK   50  A    between atoms: _143  and  _146
REMARK   51  A    between atoms: _146  and  _147
REMARK   52  A    between atoms: _153  and  _155
REMARK   53  A    between atoms: _155  and  _156
REMARK   54  A    between atoms: _155  and  _158
REMARK   55  A    between atoms: _158  and  _159
REMARK   56  A    between atoms: _163  and  ZN_427
REMARK   57  A    between atoms: _164  and  _166
REMARK   58  A    between atoms: _166  and  _167
REMARK   59  A    between atoms: _166  and  _169
REMARK   60  A    between atoms: _169  and  _170
REMARK   61  A    between atoms: _170  and  _171
REMARK   62  A    between atoms: _174  and  _176
REMARK   63  A    between atoms: _176  and  _177
REMARK   64  A    between atoms: _176  and  _179
REMARK   65  A    between atoms: _179  and  _180
REMARK   66  A    between atoms: _185  and  _187
REMARK   67  A    between atoms: _187  and  _188
REMARK   68  A    between atoms: _187  and  _190
REMARK   69  A    between atoms: _191  and  _192
REMARK   70  A    between atoms: _195  and  _197
REMARK   71  A    between atoms: _197  and  _198
REMARK   72  A    between atoms: _197  and  _200
REMARK   73  A    between atoms: _200  and  _201
REMARK   74  A    between atoms: _204  and  _206
REMARK   75  A    between atoms: _206  and  _207
REMARK   76  A    between atoms: _206  and  _209
REMARK   77  A    between atoms: _209  and  _210
REMARK   78  A    between atoms: _211  and  ZN_427
REMARK   79  A    between atoms: _215  and  _217
REMARK   80  A    between atoms: _217  and  _218
REMARK   81  A    between atoms: _217  and  _220
REMARK   82  A    between atoms: _220  and  _221
REMARK   83  A    between atoms: _224  and  _226
REMARK   84  A    between atoms: _226  and  _227
REMARK   85  A    between atoms: _226  and  _229
REMARK   86  A    between atoms: _232  and  _234
REMARK   87  A    between atoms: _234  and  _235
REMARK   88  A    between atoms: _234  and  _237
REMARK   89  A    between atoms: _237  and  _238
REMARK   90  A    between atoms: _243  and  _245
REMARK   91  A    between atoms: _245  and  _246
REMARK   92  A    between atoms: _245  and  _248
REMARK   93  A    between atoms: _248  and  _249
REMARK   94  A    between atoms: _255  and  _257
REMARK   95  A    between atoms: _257  and  _258
REMARK   96  A    between atoms: _257  and  _260
REMARK   97  A    between atoms: _263  and  _265
REMARK   98  A    between atoms: _265  and  _266
REMARK   99  A    between atoms: _265  and  _268
REMARK  100  A    between atoms: _268  and  _269
REMARK  101  A    between atoms: _272  and  _274
REMARK  102  A    between atoms: _274  and  _275
REMARK  103  A    between atoms: _278  and  _280
REMARK  104  A    between atoms: _280  and  _281
REMARK  105  A    between atoms: _280  and  _283
REMARK  106  A    between atoms: _286  and  _288
REMARK  107  A    between atoms: _288  and  _289
REMARK  108  A    between atoms: _288  and  _291
REMARK  109  A    between atoms: _291  and  _292
REMARK  110  A    between atoms: _295  and  _297
REMARK  111  A    between atoms: _297  and  _298
REMARK  112  A    between atoms: _300  and  _302
REMARK  113  A    between atoms: _302  and  _303
REMARK  114  A    between atoms: _302  and  _305
REMARK  115  A    between atoms: _305  and  _306
REMARK  116  A    between atoms: _308  and  _310
REMARK  117  A    between atoms: _310  and  _311
REMARK  118  A    between atoms: _310  and  _313
REMARK  119  A    between atoms: _313  and  _314
REMARK  120  A    between atoms: _314  and  _315
REMARK  121  A    between atoms: _318  and  _320
REMARK  122  A    between atoms: _320  and  _321
REMARK  123  A    between atoms: _320  and  _323
REMARK  124  A    between atoms: _323  and  _324
REMARK  125  A    between atoms: _327  and  _329
REMARK  126  A    between atoms: _329  and  _330
REMARK  127  A    between atoms: _329  and  _332
REMARK  128  A    between atoms: _332  and  _333
REMARK  129  A    between atoms: _337  and  _338
REMARK  130  A    between atoms: _344  and  _345
REMARK  131  A    between atoms: _350  and  _352
REMARK  132  A    between atoms: _352  and  _353
REMARK  133  A    between atoms: _352  and  _355
REMARK  134  A    between atoms: _355  and  _356
REMARK  135  A    between atoms: _359  and  _361
REMARK  136  A    between atoms: _361  and  _362
REMARK  137  A    between atoms: _361  and  _364
REMARK  138  A    between atoms: _364  and  _365
REMARK  139  A    between atoms: _368  and  _370
REMARK  140  A    between atoms: _370  and  _371
REMARK  141  A    between atoms: _370  and  _373
REMARK  142  A    between atoms: _375  and  _377
REMARK  143  A    between atoms: _377  and  _378
REMARK  144  A    between atoms: _377  and  _380
REMARK  145  A    between atoms: _383  and  _385
REMARK  146  A    between atoms: _385  and  _386
REMARK  147  A    between atoms: _385  and  _388
REMARK  148  A    between atoms: _388  and  _389
REMARK  149  A    between atoms: _399  and  _401
REMARK  150  A    between atoms: _401  and  _402
REMARK  151  A    between atoms: _401  and  _404
REMARK  152  A    between atoms: _404  and  _405
REMARK  153  A    between atoms: _410  and  _412
REMARK  154  A    between atoms: _412  and  _413
REMARK  155  A    between atoms: _412  and  _415
REMARK  156  A    between atoms: _415  and  _416
REMARK  157  A    between atoms: _416  and  _417
REMARK  158  A    between atoms: _417  and  _418
REMARK                            x       y       z     vdW  Elec       q    Type
REMARK                         _______ _______ _______ _____ _____    ______ ____
ROOT
ATOM      1  O   HOH     1      -1.370  -3.837  16.063  0.00  0.00    +0.000 OA
ENDROOT
TORSDOF 0
REMARK  Name = ../refined-set-2016/1yda/1yda_pocket.pdb
REMARK  158 active torsions:
REMARK  status: ('A' for Active; 'I' for Inactive)
REMARK    1  A    between atoms: _1  and  _5
REMARK    2  A    between atoms: _5  and  _6
REMARK    3  A    between atoms: _5  and  _8
REMARK    4  A    between atoms: _8  and  _9
REMARK    5  A    between atoms: _19  and  _21
REMARK    6  A    between atoms: _21  and  _22
REMARK    7  A    between atoms: _21  and  _24
REMARK    8  A    between atoms: _24  and  _25
REMARK    9  A    between atoms: _30  and  _31
REMARK   10  A    between atoms: _33  and  _35
REMARK   11  A    between atoms: _35  and  _36
REMARK   12  A    between atoms: _35  and  _38
REMARK   13  A    between atoms: _38  and  _39
REMARK   14  A    between atoms: _49  and  _51
REMARK   15  A    between atoms: _51  and  _52
REMARK   16  A    between atoms: _51  and  _54
REMARK   17  A    between atoms: _54  and  _55
REMARK   18  A    between atoms: _58  and  _59
REMARK   19  A    between atoms: _64  and  _66
REMARK   20  A    between atoms: _66  and  _67
REMARK   21  A    between atoms: _66  and  _69
REMARK   22  A    between atoms: _69  and  _70
REMARK   23  A    between atoms: _75  and  _77
REMARK   24  A    between atoms: _77  and  _78
REMARK   25  A    between atoms: _77  and  _80
REMARK   26  A    between atoms: _80  and  _81
REMARK   27  A    between atoms: _86  and  _88
REMARK   28  A    between atoms: _88  and  _89
REMARK   29  A    between atoms: _88  and  _91
REMARK   30  A    between atoms: _91  and  _92
REMARK   31  A    between atoms: _97  and  _99
REMARK   32  A    between atoms: _99  and  _100
REMARK   33  A    between atoms: _99  and  _102
REMARK   34  A    between atoms: _102  and  _103
REMARK   35  A    between atoms: _106  and  _108
REMARK   36  A    between atoms: _108  and  _109
REMARK   37  A    between atoms: _108  and  _111
REMARK   38  A    between atoms: _111  and  _112
REMARK   39  A    between atoms: _112  and  _113
REMARK   40  A    between atoms: _118  and  _120
REMARK   41  A    between atoms: _120  and  _121
REMARK   42  A    between atoms: _120  and  _123
REMARK   43  A    between atoms: _123  and  _124
REMARK   44  A    between atoms: _130  and  _132
REMARK   45  A    between atoms: _132  and  _133
REMARK   46  A    between atoms: _132  and  _135
REMARK   47  A    between atoms: _135  and  _136
REMARK   48  A    between atoms: _141  and  _143
REMARK   49  A    between atoms: _143  and  _144
REMARK   50  A    between atoms: _143  and  _146
REMARK   51  A    between atoms: _146  and  _147
REMARK   52  A    between atoms: _153  and  _155
REMARK   53  A    between atoms: _155  and  _156
REMARK   54  A    between atoms: _155  and  _158
REMARK   55  A    between atoms: _158  and  _159
REMARK   56  A    between atoms: _163  and  ZN_427
REMARK   57  A    between atoms: _164  and  _166
REMARK   58  A    between atoms: _166  and  _167
REMARK   59  A    between atoms: _166  and  _169
REMARK   60  A    between atoms: _169  and  _170
REMARK   61  A    between atoms: _170  and  _171
REMARK   62  A    between atoms: _174  and  _176
REMARK   63  A    between atoms: _176  and  _177
REMARK   64  A    between atoms: _176  and  _179
REMARK   65  A    between atoms: _179  and  _180
REMARK   66  A    between atoms: _185  and  _187
REMARK   67  A    between atoms: _187  and  _188
REMARK   68  A    between atoms: _187  and  _190
REMARK   69  A    between atoms: _191  and  _192
REMARK   70  A    between atoms: _195  and  _197
REMARK   71  A    between atoms: _197  and  _198
REMARK   72  A    between atoms: _197  and  _200
REMARK   73  A    between atoms: _200  and  _201
REMARK   74  A    between atoms: _204  and  _206
REMARK   75  A    between atoms: _206  and  _207
REMARK   76  A    between atoms: _206  and  _209
REMARK   77  A    between atoms: _209  and  _210
REMARK   78  A    between atoms: _211  and  ZN_427
REMARK   79  A    between atoms: _215  and  _217
REMARK   80  A    between atoms: _217  and  _218
REMARK   81  A    between atoms: _217  and  _220
REMARK   82  A    between atoms: _220  and  _221
REMARK   83  A    between atoms: _224  and  _226
REMARK   84  A    between atoms: _226  and  _227
REMARK   85  A    between atoms: _226  and  _229
REMARK   86  A    between atoms: _232  and  _234
REMARK   87  A    between atoms: _234  and  _235
REMARK   88  A    between atoms: _234  and  _237
REMARK   89  A    between atoms: _237  and  _238
REMARK   90  A    between atoms: _243  and  _245
REMARK   91  A    between atoms: _245  and  _246
REMARK   92  A    between atoms: _245  and  _248
REMARK   93  A    between atoms: _248  and  _249
REMARK   94  A    between atoms: _255  and  _257
REMARK   95  A    between atoms: _257  and  _258
REMARK   96  A    between atoms: _257  and  _260
REMARK   97  A    between atoms: _263  and  _265
REMARK   98  A    between atoms: _265  and  _266
REMARK   99  A    between atoms: _265  and  _268
REMARK  100  A    between atoms: _268  and  _269
REMARK  101  A    between atoms: _272  and  _274
REMARK  102  A    between atoms: _274  and  _275
REMARK  103  A    between atoms: _278  and  _280
REMARK  104  A    between atoms: _280  and  _281
REMARK  105  A    between atoms: _280  and  _283
REMARK  106  A    between atoms: _286  and  _288
REMARK  107  A    between atoms: _288  and  _289
REMARK  108  A    between atoms: _288  and  _291
REMARK  109  A    between atoms: _291  and  _292
REMARK  110  A    between atoms: _295  and  _297
REMARK  111  A    between atoms: _297  and  _298
REMARK  112  A    between atoms: _300  and  _302
REMARK  113  A    between atoms: _302  and  _303
REMARK  114  A    between atoms: _302  and  _305
REMARK  115  A    between atoms: _305  and  _306
REMARK  116  A    between atoms: _308  and  _310
REMARK  117  A    between atoms: _310  and  _311
REMARK  118  A    between atoms: _310  and  _313
REMARK  119  A    between atoms: _313  and  _314
REMARK  120  A    between atoms: _314  and  _315
REMARK  121  A    between atoms: _318  and  _320
REMARK  122  A    between atoms: _320  and  _321
REMARK  123  A    between atoms: _320  and  _323
REMARK  124  A    between atoms: _323  and  _324
REMARK  125  A    between atoms: _327  and  _329
REMARK  126  A    between atoms: _329  and  _330
REMARK  127  A    between atoms: _329  and  _332
REMARK  128  A    between atoms: _332  and  _333
REMARK  129  A    between atoms: _337  and  _338
REMARK  130  A    between atoms: _344  and  _345
REMARK  131  A    between atoms: _350  and  _352
REMARK  132  A    between atoms: _352  and  _353
REMARK  133  A    between atoms: _352  and  _355
REMARK  134  A    between atoms: _355  and  _356
REMARK  135  A    between atoms: _359  and  _361
REMARK  136  A    between atoms: _361  and  _362
REMARK  137  A    between atoms: _361  and  _364
REMARK  138  A    between atoms: _364  and  _365
REMARK  139  A    between atoms: _368  and  _370
REMARK  140  A    between atoms: _370  and  _371
REMARK  141  A    between atoms: _370  and  _373
REMARK  142  A    between atoms: _375  and  _377
REMARK  143  A    between atoms: _377  and  _378
REMARK  144  A    between atoms: _377  and  _380
REMARK  145  A    between atoms: _383  and  _385
REMARK  146  A    between atoms: _385  and  _386
REMARK  147  A    between atoms: _385  and  _388
REMARK  148  A    between atoms: _388  and  _389
REMARK  149  A    between atoms: _399  and  _401
REMARK  150  A    between atoms: _401  and  _402
REMARK  151  A    between atoms: _401  and  _404
REMARK  152  A    between atoms: _404  and  _405
REMARK  153  A    between atoms: _410  and  _412
REMARK  154  A    between atoms: _412  and  _413
REMARK  155  A    between atoms: _412  and  _415
REMARK  156  A    between atoms: _415  and  _416
REMARK  157  A    between atoms: _416  and  _417
REMARK  158  A    between atoms: _417  and  _418
REMARK                            x       y       z     vdW  Elec       q    Type
REMARK                         _______ _______ _______ _____ _____    ______ ____
ROOT
ATOM      1  O   HOH     1      -2.176  -3.142  11.658  0.00  0.00    +0.000 OA
ENDROOT
TORSDOF 0
REMARK  Name = ../refined-set-2016/1yda/1yda_pocket.pdb
REMARK  158 active torsions:
REMARK  status: ('A' for Active; 'I' for Inactive)
REMARK    1  A    between atoms: _1  and  _5
REMARK    2  A    between atoms: _5  and  _6
REMARK    3  A    between atoms: _5  and  _8
REMARK    4  A    between atoms: _8  and  _9
REMARK    5  A    between atoms: _19  and  _21
REMARK    6  A    between atoms: _21  and  _22
REMARK    7  A    between atoms: _21  and  _24
REMARK    8  A    between atoms: _24  and  _25
REMARK    9  A    between atoms: _30  and  _31
REMARK   10  A    between atoms: _33  and  _35
REMARK   11  A    between atoms: _35  and  _36
REMARK   12  A    between atoms: _35  and  _38
REMARK   13  A    between atoms: _38  and  _39
REMARK   14  A    between atoms: _49  and  _51
REMARK   15  A    between atoms: _51  and  _52
REMARK   16  A    between atoms: _51  and  _54
REMARK   17  A    between atoms: _54  and  _55
REMARK   18  A    between atoms: _58  and  _59
REMARK   19  A    between atoms: _64  and  _66
REMARK   20  A    between atoms: _66  and  _67
REMARK   21  A    between atoms: _66  and  _69
REMARK   22  A    between atoms: _69  and  _70
REMARK   23  A    between atoms: _75  and  _77
REMARK   24  A    between atoms: _77  and  _78
REMARK   25  A    between atoms: _77  and  _80
REMARK   26  A    between atoms: _80  and  _81
REMARK   27  A    between atoms: _86  and  _88
REMARK   28  A    between atoms: _88  and  _89
REMARK   29  A    between atoms: _88  and  _91
REMARK   30  A    between atoms: _91  and  _92
REMARK   31  A    between atoms: _97  and  _99
REMARK   32  A    between atoms: _99  and  _100
REMARK   33  A    between atoms: _99  and  _102
REMARK   34  A    between atoms: _102  and  _103
REMARK   35  A    between atoms: _106  and  _108
REMARK   36  A    between atoms: _108  and  _109
REMARK   37  A    between atoms: _108  and  _111
REMARK   38  A    between atoms: _111  and  _112
REMARK   39  A    between atoms: _112  and  _113
REMARK   40  A    between atoms: _118  and  _120
REMARK   41  A    between atoms: _120  and  _121
REMARK   42  A    between atoms: _120  and  _123
REMARK   43  A    between atoms: _123  and  _124
REMARK   44  A    between atoms: _130  and  _132
REMARK   45  A    between atoms: _132  and  _133
REMARK   46  A    between atoms: _132  and  _135
REMARK   47  A    between atoms: _135  and  _136
REMARK   48  A    between atoms: _141  and  _143
REMARK   49  A    between atoms: _143  and  _144
REMARK   50  A    between atoms: _143  and  _146
REMARK   51  A    between atoms: _146  and  _147
REMARK   52  A    between atoms: _153  and  _155
REMARK   53  A    between atoms: _155  and  _156
REMARK   54  A    between atoms: _155  and  _158
REMARK   55  A    between atoms: _158  and  _159
REMARK   56  A    between atoms: _163  and  ZN_427
REMARK   57  A    between atoms: _164  and  _166
REMARK   58  A    between atoms: _166  and  _167
REMARK   59  A    between atoms: _166  and  _169
REMARK   60  A    between atoms: _169  and  _170
REMARK   61  A    between atoms: _170  and  _171
REMARK   62  A    between atoms: _174  and  _176
REMARK   63  A    between atoms: _176  and  _177
REMARK   64  A    between atoms: _176  and  _179
REMARK   65  A    between atoms: _179  and  _180
REMARK   66  A    between atoms: _185  and  _187
REMARK   67  A    between atoms: _187  and  _188
REMARK   68  A    between atoms: _187  and  _190
REMARK   69  A    between atoms: _191  and  _192
REMARK   70  A    between atoms: _195  and  _197
REMARK   71  A    between atoms: _197  and  _198
REMARK   72  A    between atoms: _197  and  _200
REMARK   73  A    between atoms: _200  and  _201
REMARK   74  A    between atoms: _204  and  _206
REMARK   75  A    between atoms: _206  and  _207
REMARK   76  A    between atoms: _206  and  _209
REMARK   77  A    between atoms: _209  and  _210
REMARK   78  A    between atoms: _211  and  ZN_427
REMARK   79  A    between atoms: _215  and  _217
REMARK   80  A    between atoms: _217  and  _218
REMARK   81  A    between atoms: _217  and  _220
REMARK   82  A    between atoms: _220  and  _221
REMARK   83  A    between atoms: _224  and  _226
REMARK   84  A    between atoms: _226  and  _227
REMARK   85  A    between atoms: _226  and  _229
REMARK   86  A    between atoms: _232  and  _234
REMARK   87  A    between atoms: _234  and  _235
REMARK   88  A    between atoms: _234  and  _237
REMARK   89  A    between atoms: _237  and  _238
REMARK   90  A    between atoms: _243  and  _245
REMARK   91  A    between atoms: _245  and  _246
REMARK   92  A    between atoms: _245  and  _248
REMARK   93  A    between atoms: _248  and  _249
REMARK   94  A    between atoms: _255  and  _257
REMARK   95  A    between atoms: _257  and  _258
REMARK   96  A    between atoms: _257  and  _260
REMARK   97  A    between atoms: _263  and  _265
REMARK   98  A    between atoms: _265  and  _266
REMARK   99  A    between atoms: _265  and  _268
REMARK  100  A    between atoms: _268  and  _269
REMARK  101  A    between atoms: _272  and  _274
REMARK  102  A    between atoms: _274  and  _275
REMARK  103  A    between atoms: _278  and  _280
REMARK  104  A    between atoms: _280  and  _281
REMARK  105  A    between atoms: _280  and  _283
REMARK  106  A    between atoms: _286  and  _288
REMARK  107  A    between atoms: _288  and  _289
REMARK  108  A    between atoms: _288  and  _291
REMARK  109  A    between atoms: _291  and  _292
REMARK  110  A    between atoms: _295  and  _297
REMARK  111  A    between atoms: _297  and  _298
REMARK  112  A    between atoms: _300  and  _302
REMARK  113  A    between atoms: _302  and  _303
REMARK  114  A    between atoms: _302  and  _305
REMARK  115  A    between atoms: _305  and  _306
REMARK  116  A    between atoms: _308  and  _310
REMARK  117  A    between atoms: _310  and  _311
REMARK  118  A    between atoms: _310  and  _313
REMARK  119  A    between atoms: _313  and  _314
REMARK  120  A    between atoms: _314  and  _315
REMARK  121  A    between atoms: _318  and  _320
REMARK  122  A    between atoms: _320  and  _321
REMARK  123  A    between atoms: _320  and  _323
REMARK  124  A    between atoms: _323  and  _324
REMARK  125  A    between atoms: _327  and  _329
REMARK  126  A    between atoms: _329  and  _330
REMARK  127  A    between atoms: _329  and  _332
REMARK  128  A    between atoms: _332  and  _333
REMARK  129  A    between atoms: _337  and  _338
REMARK  130  A    between atoms: _344  and  _345
REMARK  131  A    between atoms: _350  and  _352
REMARK  132  A    between atoms: _352  and  _353
REMARK  133  A    between atoms: _352  and  _355
REMARK  134  A    between atoms: _355  and  _356
REMARK  135  A    between atoms: _359  and  _361
REMARK  136  A    between atoms: _361  and  _362
REMARK  137  A    between atoms: _361  and  _364
REMARK  138  A    between atoms: _364  and  _365
REMARK  139  A    between atoms: _368  and  _370
REMARK  140  A    between atoms: _370  and  _371
REMARK  141  A    between atoms: _370  and  _373
REMARK  142  A    between atoms: _375  and  _377
REMARK  143  A    between atoms: _377  and  _378
REMARK  144  A    between atoms: _377  and  _380
REMARK  145  A    between atoms: _383  and  _385
REMARK  146  A    between atoms: _385  and  _386
REMARK  147  A    between atoms: _385  and  _388
REMARK  148  A    between atoms: _388  and  _389
REMARK  149  A    between atoms: _399  and  _401
REMARK  150  A    between atoms: _401  and  _402
REMARK  151  A    between atoms: _401  and  _404
REMARK  152  A    between atoms: _404  and  _405
REMARK  153  A    between atoms: _410  and  _412
REMARK  154  A    between atoms: _412  and  _413
REMARK  155  A    between atoms: _412  and  _415
REMARK  156  A    between atoms: _415  and  _416
REMARK  157  A    between atoms: _416  and  _417
REMARK  158  A    between atoms: _417  and  _418
REMARK                            x       y       z     vdW  Elec       q    Type
REMARK                         _______ _______ _______ _____ _____    ______ ____
ROOT
ATOM      1  O   HOH     1      -4.850   0.349  10.439  0.00  0.00    +0.000 OA
ENDROOT
TORSDOF 0
REMARK  Name = ../refined-set-2016/1yda/1yda_pocket.pdb
REMARK  158 active torsions:
REMARK  status: ('A' for Active; 'I' for Inactive)
REMARK    1  A    between atoms: _1  and  _5
REMARK    2  A    between atoms: _5  and  _6
REMARK    3  A    between atoms: _5  and  _8
REMARK    4  A    between atoms: _8  and  _9
REMARK    5  A    between atoms: _19  and  _21
REMARK    6  A    between atoms: _21  and  _22
REMARK    7  A    between atoms: _21  and  _24
REMARK    8  A    between atoms: _24  and  _25
REMARK    9  A    between atoms: _30  and  _31
REMARK   10  A    between atoms: _33  and  _35
REMARK   11  A    between atoms: _35  and  _36
REMARK   12  A    between atoms: _35  and  _38
REMARK   13  A    between atoms: _38  and  _39
REMARK   14  A    between atoms: _49  and  _51
REMARK   15  A    between atoms: _51  and  _52
REMARK   16  A    between atoms: _51  and  _54
REMARK   17  A    between atoms: _54  and  _55
REMARK   18  A    between atoms: _58  and  _59
REMARK   19  A    between atoms: _64  and  _66
REMARK   20  A    between atoms: _66  and  _67
REMARK   21  A    between atoms: _66  and  _69
REMARK   22  A    between atoms: _69  and  _70
REMARK   23  A    between atoms: _75  and  _77
REMARK   24  A    between atoms: _77  and  _78
REMARK   25  A    between atoms: _77  and  _80
REMARK   26  A    between atoms: _80  and  _81
REMARK   27  A    between atoms: _86  and  _88
REMARK   28  A    between atoms: _88  and  _89
REMARK   29  A    between atoms: _88  and  _91
REMARK   30  A    between atoms: _91  and  _92
REMARK   31  A    between atoms: _97  and  _99
REMARK   32  A    between atoms: _99  and  _100
REMARK   33  A    between atoms: _99  and  _102
REMARK   34  A    between atoms: _102  and  _103
REMARK   35  A    between atoms: _106  and  _108
REMARK   36  A    between atoms: _108  and  _109
REMARK   37  A    between atoms: _108  and  _111
REMARK   38  A    between atoms: _111  and  _112
REMARK   39  A    between atoms: _112  and  _113
REMARK   40  A    between atoms: _118  and  _120
REMARK   41  A    between atoms: _120  and  _121
REMARK   42  A    between atoms: _120  and  _123
REMARK   43  A    between atoms: _123  and  _124
REMARK   44  A    between atoms: _130  and  _132
REMARK   45  A    between atoms: _132  and  _133
REMARK   46  A    between atoms: _132  and  _135
REMARK   47  A    between atoms: _135  and  _136
REMARK   48  A    between atoms: _141  and  _143
REMARK   49  A    between atoms: _143  and  _144
REMARK   50  A    between atoms: _143  and  _146
REMARK   51  A    between atoms: _146  and  _147
REMARK   52  A    between atoms: _153  and  _155
REMARK   53  A    between atoms: _155  and  _156
REMARK   54  A    between atoms: _155  and  _158
REMARK   55  A    between atoms: _158  and  _159
REMARK   56  A    between atoms: _163  and  ZN_427
REMARK   57  A    between atoms: _164  and  _166
REMARK   58  A    between atoms: _166  and  _167
REMARK   59  A    between atoms: _166  and  _169
REMARK   60  A    between atoms: _169  and  _170
REMARK   61  A    between atoms: _170  and  _171
REMARK   62  A    between atoms: _174  and  _176
REMARK   63  A    between atoms: _176  and  _177
REMARK   64  A    between atoms: _176  and  _179
REMARK   65  A    between atoms: _179  and  _180
REMARK   66  A    between atoms: _185  and  _187
REMARK   67  A    between atoms: _187  and  _188
REMARK   68  A    between atoms: _187  and  _190
REMARK   69  A    between atoms: _191  and  _192
REMARK   70  A    between atoms: _195  and  _197
REMARK   71  A    between atoms: _197  and  _198
REMARK   72  A    between atoms: _197  and  _200
REMARK   73  A    between atoms: _200  and  _201
REMARK   74  A    between atoms: _204  and  _206
REMARK   75  A    between atoms: _206  and  _207
REMARK   76  A    between atoms: _206  and  _209
REMARK   77  A    between atoms: _209  and  _210
REMARK   78  A    between atoms: _211  and  ZN_427
REMARK   79  A    between atoms: _215  and  _217
REMARK   80  A    between atoms: _217  and  _218
REMARK   81  A    between atoms: _217  and  _220
REMARK   82  A    between atoms: _220  and  _221
REMARK   83  A    between atoms: _224  and  _226
REMARK   84  A    between atoms: _226  and  _227
REMARK   85  A    between atoms: _226  and  _229
REMARK   86  A    between atoms: _232  and  _234
REMARK   87  A    between atoms: _234  and  _235
REMARK   88  A    between atoms: _234  and  _237
REMARK   89  A    between atoms: _237  and  _238
REMARK   90  A    between atoms: _243  and  _245
REMARK   91  A    between atoms: _245  and  _246
REMARK   92  A    between atoms: _245  and  _248
REMARK   93  A    between atoms: _248  and  _249
REMARK   94  A    between atoms: _255  and  _257
REMARK   95  A    between atoms: _257  and  _258
REMARK   96  A    between atoms: _257  and  _260
REMARK   97  A    between atoms: _263  and  _265
REMARK   98  A    between atoms: _265  and  _266
REMARK   99  A    between atoms: _265  and  _268
REMARK  100  A    between atoms: _268  and  _269
REMARK  101  A    between atoms: _272  and  _274
REMARK  102  A    between atoms: _274  and  _275
REMARK  103  A    between atoms: _278  and  _280
REMARK  104  A    between atoms: _280  and  _281
REMARK  105  A    between atoms: _280  and  _283
REMARK  106  A    between atoms: _286  and  _288
REMARK  107  A    between atoms: _288  and  _289
REMARK  108  A    between atoms: _288  and  _291
REMARK  109  A    between atoms: _291  and  _292
REMARK  110  A    between atoms: _295  and  _297
REMARK  111  A    between atoms: _297  and  _298
REMARK  112  A    between atoms: _300  and  _302
REMARK  113  A    between atoms: _302  and  _303
REMARK  114  A    between atoms: _302  and  _305
REMARK  115  A    between atoms: _305  and  _306
REMARK  116  A    between atoms: _308  and  _310
REMARK  117  A    between atoms: _310  and  _311
REMARK  118  A    between atoms: _310  and  _313
REMARK  119  A    between atoms: _313  and  _314
REMARK  120  A    between atoms: _314  and  _315
REMARK  121  A    between atoms: _318  and  _320
REMARK  122  A    between atoms: _320  and  _321
REMARK  123  A    between atoms: _320  and  _323
REMARK  124  A    between atoms: _323  and  _324
REMARK  125  A    between atoms: _327  and  _329
REMARK  126  A    between atoms: _329  and  _330
REMARK  127  A    between atoms: _329  and  _332
REMARK  128  A    between atoms: _332  and  _333
REMARK  129  A    between atoms: _337  and  _338
REMARK  130  A    between atoms: _344  and  _345
REMARK  131  A    between atoms: _350  and  _352
REMARK  132  A    between atoms: _352  and  _353
REMARK  133  A    between atoms: _352  and  _355
REMARK  134  A    between atoms: _355  and  _356
REMARK  135  A    between atoms: _359  and  _361
REMARK  136  A    between atoms: _361  and  _362
REMARK  137  A    between atoms: _361  and  _364
REMARK  138  A    between atoms: _364  and  _365
REMARK  139  A    between atoms: _368  and  _370
REMARK  140  A    between atoms: _370  and  _371
REMARK  141  A    between atoms: _370  and  _373
REMARK  142  A    between atoms: _375  and  _377
REMARK  143  A    between atoms: _377  and  _378
REMARK  144  A    between atoms: _377  and  _380
REMARK  145  A    between atoms: _383  and  _385
REMARK  146  A    between atoms: _385  and  _386
REMARK  147  A    between atoms: _385  and  _388
REMARK  148  A    between atoms: _388  and  _389
REMARK  149  A    between atoms: _399  and  _401
REMARK  150  A    between atoms: _401  and  _402
REMARK  151  A    between atoms: _401  and  _404
REMARK  152  A    between atoms: _404  and  _405
REMARK  153  A    between atoms: _410  and  _412
REMARK  154  A    between atoms: _412  and  _413
REMARK  155  A    between atoms: _412  and  _415
REMARK  156  A    between atoms: _415  and  _416
REMARK  157  A    between atoms: _416  and  _417
REMARK  158  A    between atoms: _417  and  _418
REMARK                            x       y       z     vdW  Elec       q    Type
REMARK                         _______ _______ _______ _____ _____    ______ ____
ROOT
ATOM      1  O   HOH     1      -4.081   0.446  14.072  0.00  0.00    +0.000 OA
ENDROOT
TORSDOF 0
